/-------------------------------------------------------------------/
/                        TELEMAC-2D                                 /
/              TRANSCRITICAL BUMP CASE WITH FRICTION                /
/-------------------------------------------------------------------/
/
/----------------------------------------------
/  COMPUTER INFORMATIONS
/----------------------------------------------
/
GEOMETRY FILE                   = 'geometry/geometry_0.slf'
BOUNDARY CONDITIONS FILE        = 'boundary/boundary3x3.cli'
RESULTS FILE                    = 'results/results_0.slf'
/
/----------------------------------------------
/  GENERAL INFORMATIONS - OUTPUTS
/----------------------------------------------
/
TITLE = 'Test0'
/
VARIABLES FOR GRAPHIC PRINTOUTS = 'U,V,S,B,Q,F,H'
NUMBER OF PRIVATE ARRAYS        = 6
/
GRAPHIC PRINTOUT PERIOD         = 600
LISTING PRINTOUT PERIOD         = 1200
/
DURATION                        = 300
TIME STEP                       = 0.005
/NUMBER OF TIME STEPS           = 2500
MASS-BALANCE                    = YES
/
/----------------------------------------------
/  INITIAL CONDITIONS
/----------------------------------------------
/
INITIAL CONDITIONS               = 'CONSTANT DEPTH'
INITIAL DEPTH                    = 0.1
/
/----------------------------------------------
/  BOUNDARY CONDITIONS
/----------------------------------------------
/
PRESCRIBED FLOWRATES            = 0.0 ; 0.01
PRESCRIBED ELEVATIONS           = 0.0 ; 0.120 /min 0.122
VELOCITY PROFILES               = 1 ; 4
/
/----------------------------------------------
/  PHYSICAL PARAMETERS
/----------------------------------------------
/
LAW OF BOTTOM FRICTION          = 4
FRICTION COEFFICIENT            = 0.02
TURBULENCE MODEL                = 1
/
/----------------------------------------------
/  NUMERICAL PARAMETERS
/----------------------------------------------
/SCHEMES
EQUATIONS                       = 'SAINT-VENANT FE'
TREATMENT OF THE LINEAR SYSTEM  = 2 /1:PRIM 2:WAVE EQUATION
/
TYPE OF ADVECTION               = 1;5
DISCRETIZATIONS IN SPACE        = 11;11
/
SOLVER                          = 1
SOLVER ACCURACY                 = 1.E-5
/
TIDAL FLATS                     = NO
FREE SURFACE GRADIENT COMPATIBILITY = 0.9
CONTINUITY CORRECTION           = YES
