/---------------------------------------------------------------------
/ TELEMAC2D Version v8p4 Apr 1, 2024
/ Caso 2
/---------------------------------------------------------------------
/---------------------------------------------------------------------
/ EQUATIONS
/---------------------------------------------------------------------
MASS-LUMPING ON TRACERS              =1.
IMPLICITATION COEFFICIENT OF TRACERS =0.6
LAW OF BOTTOM FRICTION               =4
FRICTION COEFFICIENT                 =0.02
TURBULENCE MODEL                     =3
/---------------------------------------------------------------------
/ EQUATIONS, ADVECTION
/---------------------------------------------------------------------
SCHEME FOR ADVECTION OF TRACERS    =5
SCHEME FOR ADVECTION OF VELOCITIES =14
SCHEME FOR ADVECTION OF K-EPSILON  =14
/---------------------------------------------------------------------
/ EQUATIONS, BOUNDARY CONDITIONS
/---------------------------------------------------------------------
PRESCRIBED ELEVATIONS =0.0;-0.03
PRESCRIBED FLOWRATES  =0.011;0.0
VELOCITY PROFILES     =4;1
/---------------------------------------------------------------------
/ EQUATIONS, INITIAL CONDITIONS
/---------------------------------------------------------------------
INITIAL CONDITIONS ='ZERO DEPTH'
/---------------------------------------------------------------------
/ INPUT-OUTPUT, FILES
/---------------------------------------------------------------------
STEERING FILE            ='steering_2.cas'
GEOMETRY FILE            ='geometry/geometry_0.slf'
RESULTS FILE             ='results/results_2.slf'
BOUNDARY CONDITIONS FILE ='boundary/boundary.cli'
/---------------------------------------------------------------------
/ INPUT-OUTPUT, GRAPHICS AND LISTING
/---------------------------------------------------------------------
VARIABLES FOR GRAPHIC PRINTOUTS =U,V,S,B,Q,F,H
LISTING PRINTOUT PERIOD         =100
GRAPHIC PRINTOUT PERIOD         =100
/---------------------------------------------------------------------
/ INPUT-OUTPUT, INFORMATION
/---------------------------------------------------------------------
CONTROL OF LIMITS =true
TITLE             ='Caso 2'
/---------------------------------------------------------------------
/ NUMERICAL PARAMETERS
/---------------------------------------------------------------------
MATRIX STORAGE                          =3
TREATMENT OF NEGATIVE DEPTHS            =2
STOP IF A STEADY STATE IS REACHED       =true
TIME STEP                               =1
CONTINUITY CORRECTION                   =YES
OPTION FOR THE TREATMENT OF TIDAL FLATS =1
TREATMENT OF THE LINEAR SYSTEM          =2
NUMBER OF TIME STEPS                    =500
TIDAL FLATS                             =YES
SUPG OPTION                             =0;0;2;2
/---------------------------------------------------------------------
/ NUMERICAL PARAMETERS, SOLVER
/---------------------------------------------------------------------
MAXIMUM NUMBER OF ITERATIONS FOR SOLVER =200
SOLVER ACCURACY                         =1.E-4
SOLVER                                  =3
/---------------------------------------------------------------------
/ NUMERICAL PARAMETERS, VELOCITY-CELERITY-HIGHT
/---------------------------------------------------------------------
IMPLICITATION FOR DIFFUSION OF VELOCITY =1.
IMPLICITATION FOR VELOCITY              =0.55
MASS-LUMPING ON H                       =1.
MASS-LUMPING ON VELOCITY                =1.
IMPLICITATION FOR DEPTH                 =0.55
