

Loading Options and Configurations
~~~~~~~~~~~~~~~~~~~~~~~~~~~~~~~~~~~~~~~~~~~~~~~~~~~~~~~~~~~~~~~~~~~~~~~~

                    _        
                   (_)       
  _ __ ___    __ _  _  _ __  
 | '_ ` _ \  / _` || || '_ \ 
 | | | | | || (_| || || | | |
 |_| |_| |_| \__,_||_||_| |_|
                             
                             


Running your CAS file(s) for:
~~~~~~~~~~~~~~~~~~~~~~~~~~~~~~~~~~~~~~~~~~~~~~~~~~~~~~~~~~~~~~~~~~~~~~~~



~~~~~~~~~~~~~~~~~~~~~~~~~~~~~~~~~~~~~~~~~~~~~~~~~~~~~~~~~~~~~~~~~~~~~~~~

gnu.shared: 
    

    +> Shared build using GFortran and Open MPI.

    +> root:    /home/jonathan/telemac-mascaret
    +> module: ad / api / artemis / bief
               damocles  / gaia  / gretel  / hermes
               identify_liq_bnd  / khione  / mascaret  / nestor
               parallel  / partel  / postel3d  / special
               stbtel  / telemac2d  / telemac3d  / tomawac
               waqtel


~~~~~~~~~~~~~~~~~~~~~~~~~~~~~~~~~~~~~~~~~~~~~~~~~~~~~~~~~~~~~~~~~~~~~~~~


... processing the steering file
  ~> Checking keyword/rubrique coherence

... checking parallelisation

... handling temporary directories
         copying: steering_0.cas -> /home/jonathan/Documentos/Tesis/telemac/steering_0.cas_2024-05-03-12h21min10s/T2DCAS
         copying: telemac2d.dico -> /home/jonathan/Documentos/Tesis/telemac/steering_0.cas_2024-05-03-12h21min10s/T2DDICO
         copying: geometry_3x3_0.slf -> /home/jonathan/Documentos/Tesis/telemac/steering_0.cas_2024-05-03-12h21min10s/T2DGEO
         copying: boundary_3x3_riv.cli -> /home/jonathan/Documentos/Tesis/telemac/steering_0.cas_2024-05-03-12h21min10s/T2DCLI

... partitioning base files (geo, conlim, sections, zones and weirs)
     +> /home/jonathan/telemac-mascaret/builds/gnu.shared/bin/partel < partel_T2DGEO.par >> partel_T2DGEO.log

... splitting / copying other input files

... checking the executable


Running your simulation(s) :
~~~~~~~~~~~~~~~~~~~~~~~~~~~~~~~~~~~~~~~~~~~~~~~~~~~~~~~~~~~~~~~~~~~~~~~~



In /home/jonathan/Documentos/Tesis/telemac/steering_0.cas_2024-05-03-12h21min10s:
mpirun --use-hwthread-cpus -np 4 /home/jonathan/Documentos/Tesis/telemac/steering_0.cas_2024-05-03-12h21min10s/out_telemac2d


 MASTER PROCESSOR NUMBER            0  OF THE GROUP OF            4
 EXECUTABLE FILE: /home/jonathan/Documentos/Tesis/telemac/steering_0.cas_2024-05-03-12h21min10s/A.EXE
 LISTING OF TELEMAC2D------------------------------------------------------------------------------

                TTTTT  EEEEE  L      EEEEE  M   M  AAAAA  CCCCC
                  T    E      L      E      MM MM  A   A  C
                  T    EEE    L      EEE    M M M  AAAAA  C
                  T    E      L      E      M   M  A   A  C
                  T    EEEEE  LLLLL  EEEEE  M   M  A   A  CCCCC

                        2D    VERSION MAIN   FORTRAN 2003

                        ~^~^~^~^~^~^~^~^~^~^~^^~^~^~^~^~^~
                          ~                            ~
                               \   '    o      '
                               /\ o       \  o
                             >=)'>    '   /\ '
                               \/   \   >=)'>        ~
                               /    /\    \/
                        ~         >=)'>   /     .
                                    \/                   )
                                    /                   (
                                          ~          )   )
                          }     ~              (    (   (
                         {                      )    )   )
                          }  }         .       (    (   (
                         {  {               /^^^^^^^^^^^^
                        ^^^^^^^^^\         /
                                  ^^^^^^^^^

 DIFFERENT NUMBER OF PARALLEL PROCESSORS:
 DECLARED BEFORE (CASE OF COUPLING ?):           4
 TELEMAC-2D :           0
 VALUE            4  IS KEPT

                   ********************************************
                   *               LECDON:                    *
                   *        AFTER CALLING DAMOCLES            *
                   *        CHECKING OF DATA  READ            *
                   *         IN THE STEERING FILE             *
                   ********************************************

 TREATMENT OF NEGATIVE DEPTHS =           2
 MASS-LUMPING ON H AUTOMATICALLY SET TO 1.D0
 CONTINUITY CORRECTION AUTOMATICALLY SET TO YES
 SUPG OPTION AUTOMATICALLY SET TO 0 FOR H

 EXITING LECDON. NAME OF THE STUDY:
 Caso 0

 OPENING FILES FOR TELEMAC2D
 OPENING: T2DGEO-geometry/geometry_3x3_0.slf
 OPENING: T2DCLI-boundary/boundary_3x3_riv.cli
 OPENING: T2DRES-results/results_0.slf

                          *****************************
                          *    MEMORY ORGANIZATION    *
                          *****************************

 READ_MESH_INFO: TITLE= newSelafin
            NUMBER OF ELEMENTS:     1960
            NUMBER OF POINTS:     1089

            TYPE OF ELEMENT: TRIANGLE
            TYPE OF BND ELEMENT: POINT

            SINGLE PRECISION FORMAT (R4)

 MXPTEL (BIEF) : MAXIMUM NUMBER OF ELEMENTS AROUND A POINT:   7
                 MAXIMUM NUMBER OF POINTS AROUND A POINT:   8
 (GLOBAL MESH)
 SEGBOR (BIEF) : NUMBER OF BOUNDARY SEGMENTS =    216
 INCLUDING THOSE DUE TO DOMAIN DECOMPOSITION
 USER_CORRXY (BIEF):NO MODIFICATION OF COORDINATES

 MESH: MESH   ALLOCATED

                     *************************************
                     *    END OF MEMORY ORGANIZATION:    *
                     *************************************

 INITIALIZING TELEMAC2D FOR
 INBIEF (BIEF): NOT A VECTOR MACHINE (ACCORDING TO YOUR DATA)
 STRCHE (BIEF): NO MODIFICATION OF FRICTION

 NUMBER OF LIQUID BOUNDARIES:           2

 USER_CORFON (TELEMAC2D): NO MODIFICATION OF BOTTOM

 CORFON (TELEMAC2D): NO BOTTOM SMOOTHINGS

================================================================================
 ITERATION        0    TIME:   0.0000 S
 TELEMAC2D INITIALIZED

                  ********************************
                  *                              *
                  *       KINETIC SCHEME         *
                  *     FIRST ORDRE IN SPACE     *
                  *                              *
                  ********************************

================================================================================
 ITERATION      100    TIME:   0.0759 S
--------------------------------------------------------------------------------
                    DIFFUSION-PROPAGATION STEP
 TIME-STEP:    7.7590584193968216E-004
--------------------------------------------------------------------------------
                       BALANCE OF WATER VOLUME
     VOLUME IN THE DOMAIN :   0.2506116     M3
     FLUX BOUNDARY    1:    0.2870258     M3/S  ( >0 : ENTERING  <0 : EXITING )
     FLUX BOUNDARY    2:    0.1000000E-01 M3/S  ( >0 : ENTERING  <0 : EXITING )
     RELATIVE ERROR IN VOLUME AT T =       0.7669E-01 S :    0.5224998E-15

================================================================================
 ITERATION      200    TIME:   0.1520 S
--------------------------------------------------------------------------------
                    DIFFUSION-PROPAGATION STEP
 TIME-STEP:    6.2375769142949716E-004
--------------------------------------------------------------------------------
                       BALANCE OF WATER VOLUME
     VOLUME IN THE DOMAIN :   0.2809736     M3
     FLUX BOUNDARY    1:    0.7570420     M3/S  ( >0 : ENTERING  <0 : EXITING )
     FLUX BOUNDARY    2:    0.1000000E-01 M3/S  ( >0 : ENTERING  <0 : EXITING )
     RELATIVE ERROR IN VOLUME AT T =       0.1526     S :    0.4069034E-15

================================================================================
 ITERATION      300    TIME:   0.2278 S
--------------------------------------------------------------------------------
                    DIFFUSION-PROPAGATION STEP
 TIME-STEP:    6.2415767072539284E-004
--------------------------------------------------------------------------------
                       BALANCE OF WATER VOLUME
     VOLUME IN THE DOMAIN :   0.3113417     M3
     FLUX BOUNDARY    1:    0.4737309     M3/S  ( >0 : ENTERING  <0 : EXITING )
     FLUX BOUNDARY    2:    0.1000000E-01 M3/S  ( >0 : ENTERING  <0 : EXITING )
     RELATIVE ERROR IN VOLUME AT T =       0.2284     S :   -0.4448708E-15

================================================================================
 ITERATION      400    TIME:   0.3034 S
--------------------------------------------------------------------------------
                    DIFFUSION-PROPAGATION STEP
 TIME-STEP:    9.3790160005551536E-004
--------------------------------------------------------------------------------
                       BALANCE OF WATER VOLUME
     VOLUME IN THE DOMAIN :   0.3419074     M3
     FLUX BOUNDARY    1:    0.2852739     M3/S  ( >0 : ENTERING  <0 : EXITING )
     FLUX BOUNDARY    2:    0.1000000E-01 M3/S  ( >0 : ENTERING  <0 : EXITING )
     RELATIVE ERROR IN VOLUME AT T =       0.3044     S :   -0.3377158E-16

================================================================================
 ITERATION      500    TIME:   0.3780 S
--------------------------------------------------------------------------------
                    DIFFUSION-PROPAGATION STEP
 TIME-STEP:    6.7383242526250985E-004
--------------------------------------------------------------------------------
                       BALANCE OF WATER VOLUME
     VOLUME IN THE DOMAIN :   0.3724724     M3
     FLUX BOUNDARY    1:    0.7566248     M3/S  ( >0 : ENTERING  <0 : EXITING )
     FLUX BOUNDARY    2:    0.1000000E-01 M3/S  ( >0 : ENTERING  <0 : EXITING )
     RELATIVE ERROR IN VOLUME AT T =       0.3787     S :   -0.8901306E-15

================================================================================
 ITERATION      600    TIME:   0.4540 S
--------------------------------------------------------------------------------
                    DIFFUSION-PROPAGATION STEP
 TIME-STEP:    8.8682569709929761E-004
--------------------------------------------------------------------------------
                       BALANCE OF WATER VOLUME
     VOLUME IN THE DOMAIN :   0.4032184     M3
     FLUX BOUNDARY    1:    0.2870542     M3/S  ( >0 : ENTERING  <0 : EXITING )
     FLUX BOUNDARY    2:    0.1000000E-01 M3/S  ( >0 : ENTERING  <0 : EXITING )
     RELATIVE ERROR IN VOLUME AT T =       0.4549     S :    0.4692080E-15

================================================================================
 ITERATION      700    TIME:   0.5282 S
--------------------------------------------------------------------------------
                    DIFFUSION-PROPAGATION STEP
 TIME-STEP:    6.7777067316245293E-004
--------------------------------------------------------------------------------
                       BALANCE OF WATER VOLUME
     VOLUME IN THE DOMAIN :   0.4332336     M3
     FLUX BOUNDARY    1:    0.3797023     M3/S  ( >0 : ENTERING  <0 : EXITING )
     FLUX BOUNDARY    2:    0.1000000E-01 M3/S  ( >0 : ENTERING  <0 : EXITING )
     RELATIVE ERROR IN VOLUME AT T =       0.5289     S :    0.1410205E-15

================================================================================
 ITERATION      800    TIME:   0.6018 S
--------------------------------------------------------------------------------
                    DIFFUSION-PROPAGATION STEP
 TIME-STEP:    6.2817184432196788E-004
--------------------------------------------------------------------------------
                       BALANCE OF WATER VOLUME
     VOLUME IN THE DOMAIN :   0.4631103     M3
     FLUX BOUNDARY    1:    0.4721425     M3/S  ( >0 : ENTERING  <0 : EXITING )
     FLUX BOUNDARY    2:    0.1000000E-01 M3/S  ( >0 : ENTERING  <0 : EXITING )
     RELATIVE ERROR IN VOLUME AT T =       0.6024     S :    0.8792120E-15

================================================================================
 ITERATION      900    TIME:   0.6744 S
--------------------------------------------------------------------------------
                    DIFFUSION-PROPAGATION STEP
 TIME-STEP:    6.7535724071385718E-004
--------------------------------------------------------------------------------
                       BALANCE OF WATER VOLUME
     VOLUME IN THE DOMAIN :   0.4925929     M3
     FLUX BOUNDARY    1:    0.3806426     M3/S  ( >0 : ENTERING  <0 : EXITING )
     FLUX BOUNDARY    2:    0.1000000E-01 M3/S  ( >0 : ENTERING  <0 : EXITING )
     RELATIVE ERROR IN VOLUME AT T =       0.6751     S :    0.1992905E-14

================================================================================
 ITERATION     1000    TIME:   0.7468 S
--------------------------------------------------------------------------------
                    DIFFUSION-PROPAGATION STEP
 TIME-STEP:    6.2386982071772684E-004
--------------------------------------------------------------------------------
                       BALANCE OF WATER VOLUME
     VOLUME IN THE DOMAIN :   0.5218489     M3
     FLUX BOUNDARY    1:    0.4741410     M3/S  ( >0 : ENTERING  <0 : EXITING )
     FLUX BOUNDARY    2:    0.1000000E-01 M3/S  ( >0 : ENTERING  <0 : EXITING )
     RELATIVE ERROR IN VOLUME AT T =       0.7474     S :    0.1506065E-14

================================================================================
 ITERATION     1100    TIME:   0.8178 S
--------------------------------------------------------------------------------
                    DIFFUSION-PROPAGATION STEP
 TIME-STEP:    6.2543932124841132E-004
--------------------------------------------------------------------------------
                       BALANCE OF WATER VOLUME
     VOLUME IN THE DOMAIN :   0.5507854     M3
     FLUX BOUNDARY    1:    0.5204095     M3/S  ( >0 : ENTERING  <0 : EXITING )
     FLUX BOUNDARY    2:    0.1000000E-01 M3/S  ( >0 : ENTERING  <0 : EXITING )
     RELATIVE ERROR IN VOLUME AT T =       0.8184     S :   -0.9051005E-15

================================================================================
 ITERATION     1200    TIME:   0.8896 S
--------------------------------------------------------------------------------
                    DIFFUSION-PROPAGATION STEP
 TIME-STEP:    6.7839365659215240E-004
--------------------------------------------------------------------------------
                       BALANCE OF WATER VOLUME
     VOLUME IN THE DOMAIN :   0.5799992     M3
     FLUX BOUNDARY    1:    0.3796176     M3/S  ( >0 : ENTERING  <0 : EXITING )
     FLUX BOUNDARY    2:    0.1000000E-01 M3/S  ( >0 : ENTERING  <0 : EXITING )
     RELATIVE ERROR IN VOLUME AT T =       0.8903     S :    0.2302998E-15

================================================================================
 ITERATION     1300    TIME:   0.9627 S
--------------------------------------------------------------------------------
                    DIFFUSION-PROPAGATION STEP
 TIME-STEP:    6.7583527631241312E-004
--------------------------------------------------------------------------------
                       BALANCE OF WATER VOLUME
     VOLUME IN THE DOMAIN :   0.6096745     M3
     FLUX BOUNDARY    1:    0.6573183     M3/S  ( >0 : ENTERING  <0 : EXITING )
     FLUX BOUNDARY    2:    0.1000000E-01 M3/S  ( >0 : ENTERING  <0 : EXITING )
     RELATIVE ERROR IN VOLUME AT T =       0.9634     S :    0.4126614E-15

================================================================================
 ITERATION     1400    TIME:   1.0355 S
--------------------------------------------------------------------------------
                    DIFFUSION-PROPAGATION STEP
 TIME-STEP:    6.2826907242174784E-004
--------------------------------------------------------------------------------
                       BALANCE OF WATER VOLUME
     VOLUME IN THE DOMAIN :   0.6391826     M3
     FLUX BOUNDARY    1:    0.6585838     M3/S  ( >0 : ENTERING  <0 : EXITING )
     FLUX BOUNDARY    2:    0.1000000E-01 M3/S  ( >0 : ENTERING  <0 : EXITING )
     RELATIVE ERROR IN VOLUME AT T =        1.036     S :   -0.1116799E-14

================================================================================
 ITERATION     1500    TIME:   1.1077 S
--------------------------------------------------------------------------------
                    DIFFUSION-PROPAGATION STEP
 TIME-STEP:    6.7838792835209813E-004
--------------------------------------------------------------------------------
                       BALANCE OF WATER VOLUME
     VOLUME IN THE DOMAIN :   0.6684144     M3
     FLUX BOUNDARY    1:    0.3790034     M3/S  ( >0 : ENTERING  <0 : EXITING )
     FLUX BOUNDARY    2:    0.1000000E-01 M3/S  ( >0 : ENTERING  <0 : EXITING )
     RELATIVE ERROR IN VOLUME AT T =        1.108     S :    0.1720185E-15

================================================================================
 ITERATION     1600    TIME:   1.1800 S
--------------------------------------------------------------------------------
                    DIFFUSION-PROPAGATION STEP
 TIME-STEP:    6.7757452709909995E-004
--------------------------------------------------------------------------------
                       BALANCE OF WATER VOLUME
     VOLUME IN THE DOMAIN :   0.6977812     M3
     FLUX BOUNDARY    1:    0.4715731     M3/S  ( >0 : ENTERING  <0 : EXITING )
     FLUX BOUNDARY    2:    0.1000000E-01 M3/S  ( >0 : ENTERING  <0 : EXITING )
     RELATIVE ERROR IN VOLUME AT T =        1.181     S :   -0.9026716E-15

================================================================================
 ITERATION     1700    TIME:   1.2511 S
--------------------------------------------------------------------------------
                    DIFFUSION-PROPAGATION STEP
 TIME-STEP:    8.8875309124352591E-004
--------------------------------------------------------------------------------
                       BALANCE OF WATER VOLUME
     VOLUME IN THE DOMAIN :   0.7266663     M3
     FLUX BOUNDARY    1:    0.2864063     M3/S  ( >0 : ENTERING  <0 : EXITING )
     FLUX BOUNDARY    2:    0.1000000E-01 M3/S  ( >0 : ENTERING  <0 : EXITING )
     RELATIVE ERROR IN VOLUME AT T =        1.252     S :   -0.5830822E-15

================================================================================
 ITERATION     1800    TIME:   1.3222 S
--------------------------------------------------------------------------------
                    DIFFUSION-PROPAGATION STEP
 TIME-STEP:    6.7545135681258131E-004
--------------------------------------------------------------------------------
                       BALANCE OF WATER VOLUME
     VOLUME IN THE DOMAIN :   0.7555869     M3
     FLUX BOUNDARY    1:    0.5199890     M3/S  ( >0 : ENTERING  <0 : EXITING )
     FLUX BOUNDARY    2:    0.1000000E-01 M3/S  ( >0 : ENTERING  <0 : EXITING )
     RELATIVE ERROR IN VOLUME AT T =        1.323     S :   -0.4276043E-16

================================================================================
 ITERATION     1900    TIME:   1.3944 S
--------------------------------------------------------------------------------
                    DIFFUSION-PROPAGATION STEP
 TIME-STEP:    7.7644674564131104E-004
--------------------------------------------------------------------------------
                       BALANCE OF WATER VOLUME
     VOLUME IN THE DOMAIN :   0.7848391     M3
     FLUX BOUNDARY    1:    0.2865294     M3/S  ( >0 : ENTERING  <0 : EXITING )
     FLUX BOUNDARY    2:    0.1000000E-01 M3/S  ( >0 : ENTERING  <0 : EXITING )
     RELATIVE ERROR IN VOLUME AT T =        1.395     S :   -0.1936975E-14

================================================================================
 ITERATION     2000    TIME:   1.4672 S
--------------------------------------------------------------------------------
                    DIFFUSION-PROPAGATION STEP
 TIME-STEP:    8.8577429999301392E-004
--------------------------------------------------------------------------------
                       BALANCE OF WATER VOLUME
     VOLUME IN THE DOMAIN :   0.8144502     M3
     FLUX BOUNDARY    1:    0.2866654     M3/S  ( >0 : ENTERING  <0 : EXITING )
     FLUX BOUNDARY    2:    0.1000000E-01 M3/S  ( >0 : ENTERING  <0 : EXITING )
     RELATIVE ERROR IN VOLUME AT T =        1.468     S :   -0.3060446E-15

================================================================================
 ITERATION     2100    TIME:   1.5393 S
--------------------------------------------------------------------------------
                    DIFFUSION-PROPAGATION STEP
 TIME-STEP:    6.7688219149261448E-004
--------------------------------------------------------------------------------
                       BALANCE OF WATER VOLUME
     VOLUME IN THE DOMAIN :   0.8437657     M3
     FLUX BOUNDARY    1:    0.4263983     M3/S  ( >0 : ENTERING  <0 : EXITING )
     FLUX BOUNDARY    2:    0.1000000E-01 M3/S  ( >0 : ENTERING  <0 : EXITING )
     RELATIVE ERROR IN VOLUME AT T =        1.540     S :   -0.1772340E-14

================================================================================
 ITERATION     2200    TIME:   1.6112 S
--------------------------------------------------------------------------------
                    DIFFUSION-PROPAGATION STEP
 TIME-STEP:    6.7461015821363172E-004
--------------------------------------------------------------------------------
                       BALANCE OF WATER VOLUME
     VOLUME IN THE DOMAIN :   0.8730935     M3
     FLUX BOUNDARY    1:    0.4744710     M3/S  ( >0 : ENTERING  <0 : EXITING )
     FLUX BOUNDARY    2:    0.1000000E-01 M3/S  ( >0 : ENTERING  <0 : EXITING )
     RELATIVE ERROR IN VOLUME AT T =        1.612     S :    0.7586119E-15

================================================================================
 ITERATION     2300    TIME:   1.6859 S
--------------------------------------------------------------------------------
                    DIFFUSION-PROPAGATION STEP
 TIME-STEP:    6.2478506780180333E-004
--------------------------------------------------------------------------------
                       BALANCE OF WATER VOLUME
     VOLUME IN THE DOMAIN :   0.9032998     M3
     FLUX BOUNDARY    1:    0.3805644     M3/S  ( >0 : ENTERING  <0 : EXITING )
     FLUX BOUNDARY    2:    0.1000000E-01 M3/S  ( >0 : ENTERING  <0 : EXITING )
     RELATIVE ERROR IN VOLUME AT T =        1.687     S :   -0.2275619E-14

================================================================================
 ITERATION     2400    TIME:   1.7570 S
--------------------------------------------------------------------------------
                    DIFFUSION-PROPAGATION STEP
 TIME-STEP:    6.2533353082949727E-004
--------------------------------------------------------------------------------
                       BALANCE OF WATER VOLUME
     VOLUME IN THE DOMAIN :   0.9322427     M3
     FLUX BOUNDARY    1:    0.5671203     M3/S  ( >0 : ENTERING  <0 : EXITING )
     FLUX BOUNDARY    2:    0.1000000E-01 M3/S  ( >0 : ENTERING  <0 : EXITING )
     RELATIVE ERROR IN VOLUME AT T =        1.758     S :    0.8015425E-15

================================================================================
 ITERATION     2500    TIME:   1.8284 S
--------------------------------------------------------------------------------
                    DIFFUSION-PROPAGATION STEP
 TIME-STEP:    6.2781779099724277E-004
--------------------------------------------------------------------------------
                       BALANCE OF WATER VOLUME
     VOLUME IN THE DOMAIN :   0.9611581     M3
     FLUX BOUNDARY    1:    0.4718591     M3/S  ( >0 : ENTERING  <0 : EXITING )
     FLUX BOUNDARY    2:    0.1000000E-01 M3/S  ( >0 : ENTERING  <0 : EXITING )
     RELATIVE ERROR IN VOLUME AT T =        1.829     S :    0.1648032E-15

================================================================================
 ITERATION     2600    TIME:   1.8989 S
--------------------------------------------------------------------------------
                    DIFFUSION-PROPAGATION STEP
 TIME-STEP:    8.8884931246400035E-004
--------------------------------------------------------------------------------
                       BALANCE OF WATER VOLUME
     VOLUME IN THE DOMAIN :   0.9898615     M3
     FLUX BOUNDARY    1:    0.2865705     M3/S  ( >0 : ENTERING  <0 : EXITING )
     FLUX BOUNDARY    2:    0.1000000E-01 M3/S  ( >0 : ENTERING  <0 : EXITING )
     RELATIVE ERROR IN VOLUME AT T =        1.900     S :    0.5143562E-15

================================================================================
 ITERATION     2700    TIME:   1.9704 S
--------------------------------------------------------------------------------
                    DIFFUSION-PROPAGATION STEP
 TIME-STEP:    6.2647478763299899E-004
--------------------------------------------------------------------------------
                       BALANCE OF WATER VOLUME
     VOLUME IN THE DOMAIN :    1.018964     M3
     FLUX BOUNDARY    1:    0.5668802     M3/S  ( >0 : ENTERING  <0 : EXITING )
     FLUX BOUNDARY    2:    0.1000000E-01 M3/S  ( >0 : ENTERING  <0 : EXITING )
     RELATIVE ERROR IN VOLUME AT T =        1.971     S :    0.7149175E-15

================================================================================
 ITERATION     2800    TIME:   2.0415 S
--------------------------------------------------------------------------------
                    DIFFUSION-PROPAGATION STEP
 TIME-STEP:    6.2418717083138247E-004
--------------------------------------------------------------------------------
                       BALANCE OF WATER VOLUME
     VOLUME IN THE DOMAIN :    1.047736     M3
     FLUX BOUNDARY    1:    0.3805070     M3/S  ( >0 : ENTERING  <0 : EXITING )
     FLUX BOUNDARY    2:    0.1000000E-01 M3/S  ( >0 : ENTERING  <0 : EXITING )
     RELATIVE ERROR IN VOLUME AT T =        2.042     S :   -0.1042048E-15

================================================================================
 ITERATION     2900    TIME:   2.1138 S
--------------------------------------------------------------------------------
                    DIFFUSION-PROPAGATION STEP
 TIME-STEP:    7.8917203348354719E-004
--------------------------------------------------------------------------------
                       BALANCE OF WATER VOLUME
     VOLUME IN THE DOMAIN :    1.077163     M3
     FLUX BOUNDARY    1:    0.2867814     M3/S  ( >0 : ENTERING  <0 : EXITING )
     FLUX BOUNDARY    2:    0.1000000E-01 M3/S  ( >0 : ENTERING  <0 : EXITING )
     RELATIVE ERROR IN VOLUME AT T =        2.115     S :   -0.7579208E-16

================================================================================
 ITERATION     3000    TIME:   2.1866 S
--------------------------------------------------------------------------------
                    DIFFUSION-PROPAGATION STEP
 TIME-STEP:    6.7634486638859645E-004
--------------------------------------------------------------------------------
                       BALANCE OF WATER VOLUME
     VOLUME IN THE DOMAIN :    1.106710     M3
     FLUX BOUNDARY    1:    0.4726891     M3/S  ( >0 : ENTERING  <0 : EXITING )
     FLUX BOUNDARY    2:    0.1000000E-01 M3/S  ( >0 : ENTERING  <0 : EXITING )
     RELATIVE ERROR IN VOLUME AT T =        2.187     S :    0.5082000E-15

================================================================================
 ITERATION     3100    TIME:   2.2583 S
--------------------------------------------------------------------------------
                    DIFFUSION-PROPAGATION STEP
 TIME-STEP:    6.2359481866928080E-004
--------------------------------------------------------------------------------
                       BALANCE OF WATER VOLUME
     VOLUME IN THE DOMAIN :    1.135841     M3
     FLUX BOUNDARY    1:    0.4746254     M3/S  ( >0 : ENTERING  <0 : EXITING )
     FLUX BOUNDARY    2:    0.1000000E-01 M3/S  ( >0 : ENTERING  <0 : EXITING )
     RELATIVE ERROR IN VOLUME AT T =        2.259     S :   -0.6596805E-15

================================================================================
 ITERATION     3200    TIME:   2.3301 S
--------------------------------------------------------------------------------
                    DIFFUSION-PROPAGATION STEP
 TIME-STEP:    8.4708233163449469E-004
--------------------------------------------------------------------------------
                       BALANCE OF WATER VOLUME
     VOLUME IN THE DOMAIN :    1.165056     M3
     FLUX BOUNDARY    1:    0.2870444     M3/S  ( >0 : ENTERING  <0 : EXITING )
     FLUX BOUNDARY    2:    0.1000000E-01 M3/S  ( >0 : ENTERING  <0 : EXITING )
     RELATIVE ERROR IN VOLUME AT T =        2.331     S :   -0.1411257E-15

================================================================================
 ITERATION     3300    TIME:   2.4030 S
--------------------------------------------------------------------------------
                    DIFFUSION-PROPAGATION STEP
 TIME-STEP:    6.7698939924392668E-004
--------------------------------------------------------------------------------
                       BALANCE OF WATER VOLUME
     VOLUME IN THE DOMAIN :    1.194591     M3
     FLUX BOUNDARY    1:    0.4723454     M3/S  ( >0 : ENTERING  <0 : EXITING )
     FLUX BOUNDARY    2:    0.1000000E-01 M3/S  ( >0 : ENTERING  <0 : EXITING )
     RELATIVE ERROR IN VOLUME AT T =        2.404     S :   -0.1272672E-14

================================================================================
 ITERATION     3400    TIME:   2.4737 S
--------------------------------------------------------------------------------
                    DIFFUSION-PROPAGATION STEP
 TIME-STEP:    6.7701715626716037E-004
--------------------------------------------------------------------------------
                       BALANCE OF WATER VOLUME
     VOLUME IN THE DOMAIN :    1.223266     M3
     FLUX BOUNDARY    1:    0.3796006     M3/S  ( >0 : ENTERING  <0 : EXITING )
     FLUX BOUNDARY    2:    0.1000000E-01 M3/S  ( >0 : ENTERING  <0 : EXITING )
     RELATIVE ERROR IN VOLUME AT T =        2.474     S :    0.5263398E-15

================================================================================
 ITERATION     3500    TIME:   2.5447 S
--------------------------------------------------------------------------------
                    DIFFUSION-PROPAGATION STEP
 TIME-STEP:    8.9195533225610213E-004
--------------------------------------------------------------------------------
                       BALANCE OF WATER VOLUME
     VOLUME IN THE DOMAIN :    1.252129     M3
     FLUX BOUNDARY    1:    0.2865339     M3/S  ( >0 : ENTERING  <0 : EXITING )
     FLUX BOUNDARY    2:    0.1000000E-01 M3/S  ( >0 : ENTERING  <0 : EXITING )
     RELATIVE ERROR IN VOLUME AT T =        2.546     S :   -0.9106101E-15

================================================================================
 ITERATION     3600    TIME:   2.6169 S
--------------------------------------------------------------------------------
                    DIFFUSION-PROPAGATION STEP
 TIME-STEP:    6.7704130898304973E-004
--------------------------------------------------------------------------------
                       BALANCE OF WATER VOLUME
     VOLUME IN THE DOMAIN :    1.281416     M3
     FLUX BOUNDARY    1:    0.5191959     M3/S  ( >0 : ENTERING  <0 : EXITING )
     FLUX BOUNDARY    2:    0.1000000E-01 M3/S  ( >0 : ENTERING  <0 : EXITING )
     RELATIVE ERROR IN VOLUME AT T =        2.618     S :   -0.2273886E-15

================================================================================
 ITERATION     3700    TIME:   2.6884 S
--------------------------------------------------------------------------------
                    DIFFUSION-PROPAGATION STEP
 TIME-STEP:    6.7776305463179058E-004
--------------------------------------------------------------------------------
                       BALANCE OF WATER VOLUME
     VOLUME IN THE DOMAIN :    1.310390     M3
     FLUX BOUNDARY    1:    0.3792248     M3/S  ( >0 : ENTERING  <0 : EXITING )
     FLUX BOUNDARY    2:    0.1000000E-01 M3/S  ( >0 : ENTERING  <0 : EXITING )
     RELATIVE ERROR IN VOLUME AT T =        2.689     S :    0.8253204E-16

================================================================================
 ITERATION     3800    TIME:   2.7593 S
--------------------------------------------------------------------------------
                    DIFFUSION-PROPAGATION STEP
 TIME-STEP:    6.7573850552662550E-004
--------------------------------------------------------------------------------
                       BALANCE OF WATER VOLUME
     VOLUME IN THE DOMAIN :    1.339254     M3
     FLUX BOUNDARY    1:    0.3802500     M3/S  ( >0 : ENTERING  <0 : EXITING )
     FLUX BOUNDARY    2:    0.1000000E-01 M3/S  ( >0 : ENTERING  <0 : EXITING )
     RELATIVE ERROR IN VOLUME AT T =        2.760     S :    0.3411067E-15

================================================================================
 ITERATION     3900    TIME:   2.8306 S
--------------------------------------------------------------------------------
                    DIFFUSION-PROPAGATION STEP
 TIME-STEP:    6.7432251956417606E-004
--------------------------------------------------------------------------------
                       BALANCE OF WATER VOLUME
     VOLUME IN THE DOMAIN :    1.368222     M3
     FLUX BOUNDARY    1:    0.4740426     M3/S  ( >0 : ENTERING  <0 : EXITING )
     FLUX BOUNDARY    2:    0.1000000E-01 M3/S  ( >0 : ENTERING  <0 : EXITING )
     RELATIVE ERROR IN VOLUME AT T =        2.831     S :    0.8001826E-15

================================================================================
 ITERATION     4000    TIME:   2.9020 S
--------------------------------------------------------------------------------
                    DIFFUSION-PROPAGATION STEP
 TIME-STEP:    6.7597944113767983E-004
--------------------------------------------------------------------------------
                       BALANCE OF WATER VOLUME
     VOLUME IN THE DOMAIN :    1.397193     M3
     FLUX BOUNDARY    1:    0.4722833     M3/S  ( >0 : ENTERING  <0 : EXITING )
     FLUX BOUNDARY    2:    0.1000000E-01 M3/S  ( >0 : ENTERING  <0 : EXITING )
     RELATIVE ERROR IN VOLUME AT T =        2.903     S :    0.3949380E-15

================================================================================
 ITERATION     4100    TIME:   2.9732 S
--------------------------------------------------------------------------------
                    DIFFUSION-PROPAGATION STEP
 TIME-STEP:    9.2667128787139600E-004
--------------------------------------------------------------------------------
                       BALANCE OF WATER VOLUME
     VOLUME IN THE DOMAIN :    1.426225     M3
     FLUX BOUNDARY    1:    0.2868644     M3/S  ( >0 : ENTERING  <0 : EXITING )
     FLUX BOUNDARY    2:    0.1000000E-01 M3/S  ( >0 : ENTERING  <0 : EXITING )
     RELATIVE ERROR IN VOLUME AT T =        2.974     S :   -0.6636458E-15

================================================================================
 ITERATION     4200    TIME:   3.0444 S
--------------------------------------------------------------------------------
                    DIFFUSION-PROPAGATION STEP
 TIME-STEP:    6.7560173427832462E-004
--------------------------------------------------------------------------------
                       BALANCE OF WATER VOLUME
     VOLUME IN THE DOMAIN :    1.455149     M3
     FLUX BOUNDARY    1:    0.4267983     M3/S  ( >0 : ENTERING  <0 : EXITING )
     FLUX BOUNDARY    2:    0.1000000E-01 M3/S  ( >0 : ENTERING  <0 : EXITING )
     RELATIVE ERROR IN VOLUME AT T =        3.045     S :   -0.8418656E-15

================================================================================
 ITERATION     4300    TIME:   3.1168 S
--------------------------------------------------------------------------------
                    DIFFUSION-PROPAGATION STEP
 TIME-STEP:    6.7849762405239767E-004
--------------------------------------------------------------------------------
                       BALANCE OF WATER VOLUME
     VOLUME IN THE DOMAIN :    1.484429     M3
     FLUX BOUNDARY    1:    0.5638274     M3/S  ( >0 : ENTERING  <0 : EXITING )
     FLUX BOUNDARY    2:    0.1000000E-01 M3/S  ( >0 : ENTERING  <0 : EXITING )
     RELATIVE ERROR IN VOLUME AT T =        3.117     S :   -0.6880209E-16

================================================================================
 ITERATION     4400    TIME:   3.1875 S
--------------------------------------------------------------------------------
                    DIFFUSION-PROPAGATION STEP
 TIME-STEP:    6.7530292699883698E-004
--------------------------------------------------------------------------------
                       BALANCE OF WATER VOLUME
     VOLUME IN THE DOMAIN :    1.513187     M3
     FLUX BOUNDARY    1:    0.3801197     M3/S  ( >0 : ENTERING  <0 : EXITING )
     FLUX BOUNDARY    2:    0.1000000E-01 M3/S  ( >0 : ENTERING  <0 : EXITING )
     RELATIVE ERROR IN VOLUME AT T =        3.188     S :    0.6396574E-15

================================================================================
 ITERATION     4500    TIME:   3.2579 S
--------------------------------------------------------------------------------
                    DIFFUSION-PROPAGATION STEP
 TIME-STEP:    6.7797730205611500E-004
--------------------------------------------------------------------------------
                       BALANCE OF WATER VOLUME
     VOLUME IN THE DOMAIN :    1.541840     M3
     FLUX BOUNDARY    1:    0.3794837     M3/S  ( >0 : ENTERING  <0 : EXITING )
     FLUX BOUNDARY    2:    0.1000000E-01 M3/S  ( >0 : ENTERING  <0 : EXITING )
     RELATIVE ERROR IN VOLUME AT T =        3.259     S :    0.4196269E-15

================================================================================
 ITERATION     4600    TIME:   3.3300 S
--------------------------------------------------------------------------------
                    DIFFUSION-PROPAGATION STEP
 TIME-STEP:    6.7678472409907881E-004
--------------------------------------------------------------------------------
                       BALANCE OF WATER VOLUME
     VOLUME IN THE DOMAIN :    1.571142     M3
     FLUX BOUNDARY    1:    0.5655181     M3/S  ( >0 : ENTERING  <0 : EXITING )
     FLUX BOUNDARY    2:    0.1000000E-01 M3/S  ( >0 : ENTERING  <0 : EXITING )
     RELATIVE ERROR IN VOLUME AT T =        3.331     S :   -0.6474951E-15

================================================================================
 ITERATION     4700    TIME:   3.4020 S
--------------------------------------------------------------------------------
                    DIFFUSION-PROPAGATION STEP
 TIME-STEP:    6.2821133187492386E-004
--------------------------------------------------------------------------------
                       BALANCE OF WATER VOLUME
     VOLUME IN THE DOMAIN :    1.600219     M3
     FLUX BOUNDARY    1:    0.3783952     M3/S  ( >0 : ENTERING  <0 : EXITING )
     FLUX BOUNDARY    2:    0.1000000E-01 M3/S  ( >0 : ENTERING  <0 : EXITING )
     RELATIVE ERROR IN VOLUME AT T =        3.403     S :    0.8464087E-16

================================================================================
 ITERATION     4800    TIME:   3.4733 S
--------------------------------------------------------------------------------
                    DIFFUSION-PROPAGATION STEP
 TIME-STEP:    7.8126022449333591E-004
--------------------------------------------------------------------------------
                       BALANCE OF WATER VOLUME
     VOLUME IN THE DOMAIN :    1.629327     M3
     FLUX BOUNDARY    1:    0.2865698     M3/S  ( >0 : ENTERING  <0 : EXITING )
     FLUX BOUNDARY    2:    0.1000000E-01 M3/S  ( >0 : ENTERING  <0 : EXITING )
     RELATIVE ERROR IN VOLUME AT T =        3.474     S :    0.5815853E-16

================================================================================
 ITERATION     4900    TIME:   3.5448 S
--------------------------------------------------------------------------------
                    DIFFUSION-PROPAGATION STEP
 TIME-STEP:    8.9017706258342881E-004
--------------------------------------------------------------------------------
                       BALANCE OF WATER VOLUME
     VOLUME IN THE DOMAIN :    1.658311     M3
     FLUX BOUNDARY    1:    0.2864545     M3/S  ( >0 : ENTERING  <0 : EXITING )
     FLUX BOUNDARY    2:    0.1000000E-01 M3/S  ( >0 : ENTERING  <0 : EXITING )
     RELATIVE ERROR IN VOLUME AT T =        3.546     S :   -0.4752464E-15

================================================================================
 ITERATION     5000    TIME:   3.6169 S
--------------------------------------------------------------------------------
                    DIFFUSION-PROPAGATION STEP
 TIME-STEP:    6.7811243585881066E-004
--------------------------------------------------------------------------------
                       BALANCE OF WATER VOLUME
     VOLUME IN THE DOMAIN :    1.687644     M3
     FLUX BOUNDARY    1:    0.4720295     M3/S  ( >0 : ENTERING  <0 : EXITING )
     FLUX BOUNDARY    2:    0.1000000E-01 M3/S  ( >0 : ENTERING  <0 : EXITING )
     RELATIVE ERROR IN VOLUME AT T =        3.618     S :   -0.1436935E-14

================================================================================
 ITERATION     5100    TIME:   3.6880 S
--------------------------------------------------------------------------------
                    DIFFUSION-PROPAGATION STEP
 TIME-STEP:    6.7639689869732967E-004
--------------------------------------------------------------------------------
                       BALANCE OF WATER VOLUME
     VOLUME IN THE DOMAIN :    1.716451     M3
     FLUX BOUNDARY    1:    0.4722859     M3/S  ( >0 : ENTERING  <0 : EXITING )
     FLUX BOUNDARY    2:    0.1000000E-01 M3/S  ( >0 : ENTERING  <0 : EXITING )
     RELATIVE ERROR IN VOLUME AT T =        3.689     S :    0.4241553E-15

================================================================================
 ITERATION     5200    TIME:   3.7590 S
--------------------------------------------------------------------------------
                    DIFFUSION-PROPAGATION STEP
 TIME-STEP:    7.2966662504727697E-004
--------------------------------------------------------------------------------
                       BALANCE OF WATER VOLUME
     VOLUME IN THE DOMAIN :    1.745328     M3
     FLUX BOUNDARY    1:    0.3329195     M3/S  ( >0 : ENTERING  <0 : EXITING )
     FLUX BOUNDARY    2:    0.1000000E-01 M3/S  ( >0 : ENTERING  <0 : EXITING )
     RELATIVE ERROR IN VOLUME AT T =        3.760     S :   -0.2416478E-15

================================================================================
 ITERATION     5300    TIME:   3.8303 S
--------------------------------------------------------------------------------
                    DIFFUSION-PROPAGATION STEP
 TIME-STEP:    6.7793928943991465E-004
--------------------------------------------------------------------------------
                       BALANCE OF WATER VOLUME
     VOLUME IN THE DOMAIN :    1.774238     M3
     FLUX BOUNDARY    1:    0.3789494     M3/S  ( >0 : ENTERING  <0 : EXITING )
     FLUX BOUNDARY    2:    0.1000000E-01 M3/S  ( >0 : ENTERING  <0 : EXITING )
     RELATIVE ERROR IN VOLUME AT T =        3.831     S :    0.7838634E-15

================================================================================
 ITERATION     5400    TIME:   3.9031 S
--------------------------------------------------------------------------------
                    DIFFUSION-PROPAGATION STEP
 TIME-STEP:    6.7857671464108542E-004
--------------------------------------------------------------------------------
                       BALANCE OF WATER VOLUME
     VOLUME IN THE DOMAIN :    1.803817     M3
     FLUX BOUNDARY    1:    0.3788893     M3/S  ( >0 : ENTERING  <0 : EXITING )
     FLUX BOUNDARY    2:    0.1000000E-01 M3/S  ( >0 : ENTERING  <0 : EXITING )
     RELATIVE ERROR IN VOLUME AT T =        3.904     S :    0.9033934E-16

================================================================================
 ITERATION     5500    TIME:   3.9752 S
--------------------------------------------------------------------------------
                    DIFFUSION-PROPAGATION STEP
 TIME-STEP:    8.8785693170348521E-004
--------------------------------------------------------------------------------
                       BALANCE OF WATER VOLUME
     VOLUME IN THE DOMAIN :    1.833100     M3
     FLUX BOUNDARY    1:    0.2862998     M3/S  ( >0 : ENTERING  <0 : EXITING )
     FLUX BOUNDARY    2:    0.1000000E-01 M3/S  ( >0 : ENTERING  <0 : EXITING )
     RELATIVE ERROR IN VOLUME AT T =        3.976     S :    0.6293707E-15

================================================================================
 ITERATION     5600    TIME:   4.0473 S
--------------------------------------------------------------------------------
                    DIFFUSION-PROPAGATION STEP
 TIME-STEP:    6.2377541627119733E-004
--------------------------------------------------------------------------------
                       BALANCE OF WATER VOLUME
     VOLUME IN THE DOMAIN :    1.862365     M3
     FLUX BOUNDARY    1:    0.5663582     M3/S  ( >0 : ENTERING  <0 : EXITING )
     FLUX BOUNDARY    2:    0.1000000E-01 M3/S  ( >0 : ENTERING  <0 : EXITING )
     RELATIVE ERROR IN VOLUME AT T =        4.048     S :   -0.9545744E-15

================================================================================
 ITERATION     5700    TIME:   4.1191 S
--------------------------------------------------------------------------------
                    DIFFUSION-PROPAGATION STEP
 TIME-STEP:    6.7704057965716229E-004
--------------------------------------------------------------------------------
                       BALANCE OF WATER VOLUME
     VOLUME IN THE DOMAIN :    1.891519     M3
     FLUX BOUNDARY    1:    0.3795688     M3/S  ( >0 : ENTERING  <0 : EXITING )
     FLUX BOUNDARY    2:    0.1000000E-01 M3/S  ( >0 : ENTERING  <0 : EXITING )
     RELATIVE ERROR IN VOLUME AT T =        4.120     S :    0.9195419E-15

================================================================================
 ITERATION     5800    TIME:   4.1902 S
--------------------------------------------------------------------------------
                    DIFFUSION-PROPAGATION STEP
 TIME-STEP:    6.7923833827099073E-004
--------------------------------------------------------------------------------
                       BALANCE OF WATER VOLUME
     VOLUME IN THE DOMAIN :    1.920390     M3
     FLUX BOUNDARY    1:    0.3788643     M3/S  ( >0 : ENTERING  <0 : EXITING )
     FLUX BOUNDARY    2:    0.1000000E-01 M3/S  ( >0 : ENTERING  <0 : EXITING )
     RELATIVE ERROR IN VOLUME AT T =        4.191     S :   -0.6058443E-15

================================================================================
 ITERATION     5900    TIME:   4.2627 S
--------------------------------------------------------------------------------
                    DIFFUSION-PROPAGATION STEP
 TIME-STEP:    8.9040071585187405E-004
--------------------------------------------------------------------------------
                       BALANCE OF WATER VOLUME
     VOLUME IN THE DOMAIN :    1.949874     M3
     FLUX BOUNDARY    1:    0.2866288     M3/S  ( >0 : ENTERING  <0 : EXITING )
     FLUX BOUNDARY    2:    0.1000000E-01 M3/S  ( >0 : ENTERING  <0 : EXITING )
     RELATIVE ERROR IN VOLUME AT T =        4.264     S :    0.1163229E-14

================================================================================
 ITERATION     6000    TIME:   4.3340 S
--------------------------------------------------------------------------------
                    DIFFUSION-PROPAGATION STEP
 TIME-STEP:    6.2254798881460603E-004
--------------------------------------------------------------------------------
                       BALANCE OF WATER VOLUME
     VOLUME IN THE DOMAIN :    1.978812     M3
     FLUX BOUNDARY    1:    0.4742971     M3/S  ( >0 : ENTERING  <0 : EXITING )
     FLUX BOUNDARY    2:    0.1000000E-01 M3/S  ( >0 : ENTERING  <0 : EXITING )
     RELATIVE ERROR IN VOLUME AT T =        4.335     S :   -0.5037719E-15

================================================================================
 ITERATION     6100    TIME:   4.4053 S
--------------------------------------------------------------------------------
                    DIFFUSION-PROPAGATION STEP
 TIME-STEP:    6.2635448300758800E-004
--------------------------------------------------------------------------------
                       BALANCE OF WATER VOLUME
     VOLUME IN THE DOMAIN :    2.007757     M3
     FLUX BOUNDARY    1:    0.3799651     M3/S  ( >0 : ENTERING  <0 : EXITING )
     FLUX BOUNDARY    2:    0.1000000E-01 M3/S  ( >0 : ENTERING  <0 : EXITING )
     RELATIVE ERROR IN VOLUME AT T =        4.406     S :    0.7159408E-15

================================================================================
 ITERATION     6200    TIME:   4.4778 S
--------------------------------------------------------------------------------
                    DIFFUSION-PROPAGATION STEP
 TIME-STEP:    6.7750459145089607E-004
--------------------------------------------------------------------------------
                       BALANCE OF WATER VOLUME
     VOLUME IN THE DOMAIN :    2.037267     M3
     FLUX BOUNDARY    1:    0.3798935     M3/S  ( >0 : ENTERING  <0 : EXITING )
     FLUX BOUNDARY    2:    0.1000000E-01 M3/S  ( >0 : ENTERING  <0 : EXITING )
     RELATIVE ERROR IN VOLUME AT T =        4.478     S :    0.8293833E-15

================================================================================
 ITERATION     6300    TIME:   4.5496 S
--------------------------------------------------------------------------------
                    DIFFUSION-PROPAGATION STEP
 TIME-STEP:    6.7661297195751062E-004
--------------------------------------------------------------------------------
                       BALANCE OF WATER VOLUME
     VOLUME IN THE DOMAIN :    2.066328     M3
     FLUX BOUNDARY    1:    0.3792430     M3/S  ( >0 : ENTERING  <0 : EXITING )
     FLUX BOUNDARY    2:    0.1000000E-01 M3/S  ( >0 : ENTERING  <0 : EXITING )
     RELATIVE ERROR IN VOLUME AT T =        4.550     S :    0.2460842E-16

================================================================================
 ITERATION     6400    TIME:   4.6215 S
--------------------------------------------------------------------------------
                    DIFFUSION-PROPAGATION STEP
 TIME-STEP:    6.2447902260489988E-004
--------------------------------------------------------------------------------
                       BALANCE OF WATER VOLUME
     VOLUME IN THE DOMAIN :    2.095554     M3
     FLUX BOUNDARY    1:    0.3799520     M3/S  ( >0 : ENTERING  <0 : EXITING )
     FLUX BOUNDARY    2:    0.1000000E-01 M3/S  ( >0 : ENTERING  <0 : EXITING )
     RELATIVE ERROR IN VOLUME AT T =        4.622     S :   -0.5877591E-15

================================================================================
 ITERATION     6500    TIME:   4.6922 S
--------------------------------------------------------------------------------
                    DIFFUSION-PROPAGATION STEP
 TIME-STEP:    6.2535683234388293E-004
--------------------------------------------------------------------------------
                       BALANCE OF WATER VOLUME
     VOLUME IN THE DOMAIN :    2.124381     M3
     FLUX BOUNDARY    1:    0.4735376     M3/S  ( >0 : ENTERING  <0 : EXITING )
     FLUX BOUNDARY    2:    0.1000000E-01 M3/S  ( >0 : ENTERING  <0 : EXITING )
     RELATIVE ERROR IN VOLUME AT T =        4.693     S :   -0.9743056E-15

================================================================================
 ITERATION     6600    TIME:   4.7628 S
--------------------------------------------------------------------------------
                    DIFFUSION-PROPAGATION STEP
 TIME-STEP:    6.2448270420826200E-004
--------------------------------------------------------------------------------
                       BALANCE OF WATER VOLUME
     VOLUME IN THE DOMAIN :    2.153028     M3
     FLUX BOUNDARY    1:    0.5662749     M3/S  ( >0 : ENTERING  <0 : EXITING )
     FLUX BOUNDARY    2:    0.1000000E-01 M3/S  ( >0 : ENTERING  <0 : EXITING )
     RELATIVE ERROR IN VOLUME AT T =        4.763     S :   -0.8627931E-15

================================================================================
 ITERATION     6700    TIME:   4.8327 S
--------------------------------------------------------------------------------
                    DIFFUSION-PROPAGATION STEP
 TIME-STEP:    6.7567972557007136E-004
--------------------------------------------------------------------------------
                       BALANCE OF WATER VOLUME
     VOLUME IN THE DOMAIN :    2.181463     M3
     FLUX BOUNDARY    1:    0.3800749     M3/S  ( >0 : ENTERING  <0 : EXITING )
     FLUX BOUNDARY    2:    0.1000000E-01 M3/S  ( >0 : ENTERING  <0 : EXITING )
     RELATIVE ERROR IN VOLUME AT T =        4.833     S :    0.7019973E-15

================================================================================
 ITERATION     6800    TIME:   4.9037 S
--------------------------------------------------------------------------------
                    DIFFUSION-PROPAGATION STEP
 TIME-STEP:    6.7610109632228958E-004
--------------------------------------------------------------------------------
                       BALANCE OF WATER VOLUME
     VOLUME IN THE DOMAIN :    2.210259     M3
     FLUX BOUNDARY    1:    0.3796422     M3/S  ( >0 : ENTERING  <0 : EXITING )
     FLUX BOUNDARY    2:    0.1000000E-01 M3/S  ( >0 : ENTERING  <0 : EXITING )
     RELATIVE ERROR IN VOLUME AT T =        4.904     S :    0.5748295E-15

================================================================================
 ITERATION     6900    TIME:   4.9748 S
--------------------------------------------------------------------------------
                    DIFFUSION-PROPAGATION STEP
 TIME-STEP:    7.2912261666645641E-004
--------------------------------------------------------------------------------
                       BALANCE OF WATER VOLUME
     VOLUME IN THE DOMAIN :    2.239170     M3
     FLUX BOUNDARY    1:    0.3329325     M3/S  ( >0 : ENTERING  <0 : EXITING )
     FLUX BOUNDARY    2:    0.1000000E-01 M3/S  ( >0 : ENTERING  <0 : EXITING )
     RELATIVE ERROR IN VOLUME AT T =        4.976     S :    0.1303631E-14

================================================================================
 ITERATION     7000    TIME:   5.0450 S
--------------------------------------------------------------------------------
                    DIFFUSION-PROPAGATION STEP
 TIME-STEP:    6.7927383994417626E-004
--------------------------------------------------------------------------------
                       BALANCE OF WATER VOLUME
     VOLUME IN THE DOMAIN :    2.267613     M3
     FLUX BOUNDARY    1:    0.3784464     M3/S  ( >0 : ENTERING  <0 : EXITING )
     FLUX BOUNDARY    2:    0.1000000E-01 M3/S  ( >0 : ENTERING  <0 : EXITING )
     RELATIVE ERROR IN VOLUME AT T =        5.046     S :   -0.7623701E-16

================================================================================
 ITERATION     7100    TIME:   5.1150 S
--------------------------------------------------------------------------------
                    DIFFUSION-PROPAGATION STEP
 TIME-STEP:    6.7803884645286261E-004
--------------------------------------------------------------------------------
                       BALANCE OF WATER VOLUME
     VOLUME IN THE DOMAIN :    2.296154     M3
     FLUX BOUNDARY    1:    0.3794277     M3/S  ( >0 : ENTERING  <0 : EXITING )
     FLUX BOUNDARY    2:    0.1000000E-01 M3/S  ( >0 : ENTERING  <0 : EXITING )
     RELATIVE ERROR IN VOLUME AT T =        5.116     S :    0.1256806E-14

================================================================================
 ITERATION     7200    TIME:   5.1857 S
--------------------------------------------------------------------------------
                    DIFFUSION-PROPAGATION STEP
 TIME-STEP:    6.7598513755591321E-004
--------------------------------------------------------------------------------
                       BALANCE OF WATER VOLUME
     VOLUME IN THE DOMAIN :    2.324916     M3
     FLUX BOUNDARY    1:    0.5196833     M3/S  ( >0 : ENTERING  <0 : EXITING )
     FLUX BOUNDARY    2:    0.1000000E-01 M3/S  ( >0 : ENTERING  <0 : EXITING )
     RELATIVE ERROR IN VOLUME AT T =        5.186     S :   -0.2040006E-15

================================================================================
 ITERATION     7300    TIME:   5.2577 S
--------------------------------------------------------------------------------
                    DIFFUSION-PROPAGATION STEP
 TIME-STEP:    6.7562525480176509E-004
--------------------------------------------------------------------------------
                       BALANCE OF WATER VOLUME
     VOLUME IN THE DOMAIN :    2.354097     M3
     FLUX BOUNDARY    1:    0.4732306     M3/S  ( >0 : ENTERING  <0 : EXITING )
     FLUX BOUNDARY    2:    0.1000000E-01 M3/S  ( >0 : ENTERING  <0 : EXITING )
     RELATIVE ERROR IN VOLUME AT T =        5.258     S :   -0.5797526E-15

================================================================================
 ITERATION     7400    TIME:   5.3305 S
--------------------------------------------------------------------------------
                    DIFFUSION-PROPAGATION STEP
 TIME-STEP:    6.7619910016665291E-004
--------------------------------------------------------------------------------
                       BALANCE OF WATER VOLUME
     VOLUME IN THE DOMAIN :    2.383632     M3
     FLUX BOUNDARY    1:    0.3794895     M3/S  ( >0 : ENTERING  <0 : EXITING )
     FLUX BOUNDARY    2:    0.1000000E-01 M3/S  ( >0 : ENTERING  <0 : EXITING )
     RELATIVE ERROR IN VOLUME AT T =        5.331     S :    0.1072657E-14

================================================================================
 ITERATION     7500    TIME:   5.4031 S
--------------------------------------------------------------------------------
                    DIFFUSION-PROPAGATION STEP
 TIME-STEP:    6.7529451068520105E-004
--------------------------------------------------------------------------------
                       BALANCE OF WATER VOLUME
     VOLUME IN THE DOMAIN :    2.413179     M3
     FLUX BOUNDARY    1:    0.5196476     M3/S  ( >0 : ENTERING  <0 : EXITING )
     FLUX BOUNDARY    2:    0.1000000E-01 M3/S  ( >0 : ENTERING  <0 : EXITING )
     RELATIVE ERROR IN VOLUME AT T =        5.404     S :    0.7756658E-15

================================================================================
 ITERATION     7600    TIME:   5.4761 S
--------------------------------------------------------------------------------
                    DIFFUSION-PROPAGATION STEP
 TIME-STEP:    6.2923529758517885E-004
--------------------------------------------------------------------------------
                       BALANCE OF WATER VOLUME
     VOLUME IN THE DOMAIN :    2.442774     M3
     FLUX BOUNDARY    1:    0.4716626     M3/S  ( >0 : ENTERING  <0 : EXITING )
     FLUX BOUNDARY    2:    0.1000000E-01 M3/S  ( >0 : ENTERING  <0 : EXITING )
     RELATIVE ERROR IN VOLUME AT T =        5.477     S :    0.7398822E-16

================================================================================
 ITERATION     7700    TIME:   5.5466 S
--------------------------------------------------------------------------------
                    DIFFUSION-PROPAGATION STEP
 TIME-STEP:    6.2479452815847965E-004
--------------------------------------------------------------------------------
                       BALANCE OF WATER VOLUME
     VOLUME IN THE DOMAIN :    2.471563     M3
     FLUX BOUNDARY    1:    0.4734724     M3/S  ( >0 : ENTERING  <0 : EXITING )
     FLUX BOUNDARY    2:    0.1000000E-01 M3/S  ( >0 : ENTERING  <0 : EXITING )
     RELATIVE ERROR IN VOLUME AT T =        5.547     S :    0.3359559E-15

================================================================================
 ITERATION     7800    TIME:   5.6191 S
--------------------------------------------------------------------------------
                    DIFFUSION-PROPAGATION STEP
 TIME-STEP:    6.7582262681853010E-004
--------------------------------------------------------------------------------
                       BALANCE OF WATER VOLUME
     VOLUME IN THE DOMAIN :    2.501002     M3
     FLUX BOUNDARY    1:    0.5668955     M3/S  ( >0 : ENTERING  <0 : EXITING )
     FLUX BOUNDARY    2:    0.1000000E-01 M3/S  ( >0 : ENTERING  <0 : EXITING )
     RELATIVE ERROR IN VOLUME AT T =        5.620     S :   -0.3208387E-15

================================================================================
 ITERATION     7900    TIME:   5.6917 S
--------------------------------------------------------------------------------
                    DIFFUSION-PROPAGATION STEP
 TIME-STEP:    8.9437921046179637E-004
--------------------------------------------------------------------------------
                       BALANCE OF WATER VOLUME
     VOLUME IN THE DOMAIN :    2.530369     M3
     FLUX BOUNDARY    1:    0.2856865     M3/S  ( >0 : ENTERING  <0 : EXITING )
     FLUX BOUNDARY    2:    0.1000000E-01 M3/S  ( >0 : ENTERING  <0 : EXITING )
     RELATIVE ERROR IN VOLUME AT T =        5.693     S :   -0.9278433E-15

================================================================================
 ITERATION     8000    TIME:   5.7639 S
--------------------------------------------------------------------------------
                    DIFFUSION-PROPAGATION STEP
 TIME-STEP:    7.7570082846312486E-004
--------------------------------------------------------------------------------
                       BALANCE OF WATER VOLUME
     VOLUME IN THE DOMAIN :    2.559738     M3
     FLUX BOUNDARY    1:    0.2862552     M3/S  ( >0 : ENTERING  <0 : EXITING )
     FLUX BOUNDARY    2:    0.1000000E-01 M3/S  ( >0 : ENTERING  <0 : EXITING )
     RELATIVE ERROR IN VOLUME AT T =        5.765     S :    0.1119479E-14

================================================================================
 ITERATION     8100    TIME:   5.8354 S
--------------------------------------------------------------------------------
                    DIFFUSION-PROPAGATION STEP
 TIME-STEP:    6.7715772162819259E-004
--------------------------------------------------------------------------------
                       BALANCE OF WATER VOLUME
     VOLUME IN THE DOMAIN :    2.588889     M3
     FLUX BOUNDARY    1:    0.4728383     M3/S  ( >0 : ENTERING  <0 : EXITING )
     FLUX BOUNDARY    2:    0.1000000E-01 M3/S  ( >0 : ENTERING  <0 : EXITING )
     RELATIVE ERROR IN VOLUME AT T =        5.836     S :    0.2043279E-15

================================================================================
 ITERATION     8200    TIME:   5.9070 S
--------------------------------------------------------------------------------
                    DIFFUSION-PROPAGATION STEP
 TIME-STEP:    8.9184723388064627E-004
--------------------------------------------------------------------------------
                       BALANCE OF WATER VOLUME
     VOLUME IN THE DOMAIN :    2.617870     M3
     FLUX BOUNDARY    1:    0.2860564     M3/S  ( >0 : ENTERING  <0 : EXITING )
     FLUX BOUNDARY    2:    0.1000000E-01 M3/S  ( >0 : ENTERING  <0 : EXITING )
     RELATIVE ERROR IN VOLUME AT T =        5.908     S :    0.7960873E-15

================================================================================
 ITERATION     8300    TIME:   5.9788 S
--------------------------------------------------------------------------------
                    DIFFUSION-PROPAGATION STEP
 TIME-STEP:    6.8074841837941239E-004
--------------------------------------------------------------------------------
                       BALANCE OF WATER VOLUME
     VOLUME IN THE DOMAIN :    2.647054     M3
     FLUX BOUNDARY    1:    0.4245359     M3/S  ( >0 : ENTERING  <0 : EXITING )
     FLUX BOUNDARY    2:    0.1000000E-01 M3/S  ( >0 : ENTERING  <0 : EXITING )
     RELATIVE ERROR IN VOLUME AT T =        5.980     S :    0.1570361E-15

================================================================================
 ITERATION     8400    TIME:   6.0497 S
--------------------------------------------------------------------------------
                    DIFFUSION-PROPAGATION STEP
 TIME-STEP:    6.7529125964766118E-004
--------------------------------------------------------------------------------
                       BALANCE OF WATER VOLUME
     VOLUME IN THE DOMAIN :    2.675858     M3
     FLUX BOUNDARY    1:    0.4731874     M3/S  ( >0 : ENTERING  <0 : EXITING )
     FLUX BOUNDARY    2:    0.1000000E-01 M3/S  ( >0 : ENTERING  <0 : EXITING )
     RELATIVE ERROR IN VOLUME AT T =        6.050     S :   -0.1102108E-14

================================================================================
 ITERATION     8500    TIME:   6.1206 S
--------------------------------------------------------------------------------
                    DIFFUSION-PROPAGATION STEP
 TIME-STEP:    8.8733798158396676E-004
--------------------------------------------------------------------------------
                       BALANCE OF WATER VOLUME
     VOLUME IN THE DOMAIN :    2.704703     M3
     FLUX BOUNDARY    1:    0.2866093     M3/S  ( >0 : ENTERING  <0 : EXITING )
     FLUX BOUNDARY    2:    0.1000000E-01 M3/S  ( >0 : ENTERING  <0 : EXITING )
     RELATIVE ERROR IN VOLUME AT T =        6.121     S :   -0.4148881E-15

================================================================================
 ITERATION     8600    TIME:   6.1921 S
--------------------------------------------------------------------------------
                    DIFFUSION-PROPAGATION STEP
 TIME-STEP:    6.2382371517549827E-004
--------------------------------------------------------------------------------
                       BALANCE OF WATER VOLUME
     VOLUME IN THE DOMAIN :    2.733772     M3
     FLUX BOUNDARY    1:    0.5213145     M3/S  ( >0 : ENTERING  <0 : EXITING )
     FLUX BOUNDARY    2:    0.1000000E-01 M3/S  ( >0 : ENTERING  <0 : EXITING )
     RELATIVE ERROR IN VOLUME AT T =        6.193     S :    0.5918398E-15

================================================================================
 ITERATION     8700    TIME:   6.2630 S
--------------------------------------------------------------------------------
                    DIFFUSION-PROPAGATION STEP
 TIME-STEP:    8.8592036435965183E-004
--------------------------------------------------------------------------------
                       BALANCE OF WATER VOLUME
     VOLUME IN THE DOMAIN :    2.762546     M3
     FLUX BOUNDARY    1:    0.2863788     M3/S  ( >0 : ENTERING  <0 : EXITING )
     FLUX BOUNDARY    2:    0.1000000E-01 M3/S  ( >0 : ENTERING  <0 : EXITING )
     RELATIVE ERROR IN VOLUME AT T =        6.264     S :   -0.4904633E-15

================================================================================
 ITERATION     8800    TIME:   6.3343 S
--------------------------------------------------------------------------------
                    DIFFUSION-PROPAGATION STEP
 TIME-STEP:    6.2859684116136337E-004
--------------------------------------------------------------------------------
                       BALANCE OF WATER VOLUME
     VOLUME IN THE DOMAIN :    2.791483     M3
     FLUX BOUNDARY    1:    0.6096743     M3/S  ( >0 : ENTERING  <0 : EXITING )
     FLUX BOUNDARY    2:    0.1000000E-01 M3/S  ( >0 : ENTERING  <0 : EXITING )
     RELATIVE ERROR IN VOLUME AT T =        6.335     S :   -0.9115471E-15

================================================================================
 ITERATION     8900    TIME:   6.4048 S
--------------------------------------------------------------------------------
                    DIFFUSION-PROPAGATION STEP
 TIME-STEP:    6.2414153586323469E-004
--------------------------------------------------------------------------------
                       BALANCE OF WATER VOLUME
     VOLUME IN THE DOMAIN :    2.820129     M3
     FLUX BOUNDARY    1:    0.4272277     M3/S  ( >0 : ENTERING  <0 : EXITING )
     FLUX BOUNDARY    2:    0.1000000E-01 M3/S  ( >0 : ENTERING  <0 : EXITING )
     RELATIVE ERROR IN VOLUME AT T =        6.405     S :    0.3776850E-15

================================================================================
 ITERATION     9000    TIME:   6.4757 S
--------------------------------------------------------------------------------
                    DIFFUSION-PROPAGATION STEP
 TIME-STEP:    6.2612853268659350E-004
--------------------------------------------------------------------------------
                       BALANCE OF WATER VOLUME
     VOLUME IN THE DOMAIN :    2.848873     M3
     FLUX BOUNDARY    1:    0.3797976     M3/S  ( >0 : ENTERING  <0 : EXITING )
     FLUX BOUNDARY    2:    0.1000000E-01 M3/S  ( >0 : ENTERING  <0 : EXITING )
     RELATIVE ERROR IN VOLUME AT T =        6.476     S :   -0.6608638E-15

================================================================================
 ITERATION     9100    TIME:   6.5468 S
--------------------------------------------------------------------------------
                    DIFFUSION-PROPAGATION STEP
 TIME-STEP:    6.2653463621803701E-004
--------------------------------------------------------------------------------
                       BALANCE OF WATER VOLUME
     VOLUME IN THE DOMAIN :    2.877804     M3
     FLUX BOUNDARY    1:    0.4732555     M3/S  ( >0 : ENTERING  <0 : EXITING )
     FLUX BOUNDARY    2:    0.1000000E-01 M3/S  ( >0 : ENTERING  <0 : EXITING )
     RELATIVE ERROR IN VOLUME AT T =        6.547     S :    0.5607869E-15

================================================================================
 ITERATION     9200    TIME:   6.6170 S
--------------------------------------------------------------------------------
                    DIFFUSION-PROPAGATION STEP
 TIME-STEP:    8.9037811188874669E-004
--------------------------------------------------------------------------------
                       BALANCE OF WATER VOLUME
     VOLUME IN THE DOMAIN :    2.906415     M3
     FLUX BOUNDARY    1:    0.2868396     M3/S  ( >0 : ENTERING  <0 : EXITING )
     FLUX BOUNDARY    2:    0.1000000E-01 M3/S  ( >0 : ENTERING  <0 : EXITING )
     RELATIVE ERROR IN VOLUME AT T =        6.618     S :    0.5952003E-15

================================================================================
 ITERATION     9300    TIME:   6.6875 S
--------------------------------------------------------------------------------
                    DIFFUSION-PROPAGATION STEP
 TIME-STEP:    6.7491443455380200E-004
--------------------------------------------------------------------------------
                       BALANCE OF WATER VOLUME
     VOLUME IN THE DOMAIN :    2.935025     M3
     FLUX BOUNDARY    1:    0.4739603     M3/S  ( >0 : ENTERING  <0 : EXITING )
     FLUX BOUNDARY    2:    0.1000000E-01 M3/S  ( >0 : ENTERING  <0 : EXITING )
     RELATIVE ERROR IN VOLUME AT T =        6.688     S :    0.4455718E-15

================================================================================
 ITERATION     9400    TIME:   6.7586 S
--------------------------------------------------------------------------------
                    DIFFUSION-PROPAGATION STEP
 TIME-STEP:    7.2882518036542084E-004
--------------------------------------------------------------------------------
                       BALANCE OF WATER VOLUME
     VOLUME IN THE DOMAIN :    2.963935     M3
     FLUX BOUNDARY    1:    0.3333736     M3/S  ( >0 : ENTERING  <0 : EXITING )
     FLUX BOUNDARY    2:    0.1000000E-01 M3/S  ( >0 : ENTERING  <0 : EXITING )
     RELATIVE ERROR IN VOLUME AT T =        6.759     S :   -0.8127122E-15

================================================================================
 ITERATION     9500    TIME:   6.8309 S
--------------------------------------------------------------------------------
                    DIFFUSION-PROPAGATION STEP
 TIME-STEP:    6.7752284437632435E-004
--------------------------------------------------------------------------------
                       BALANCE OF WATER VOLUME
     VOLUME IN THE DOMAIN :    2.993255     M3
     FLUX BOUNDARY    1:    0.6098310     M3/S  ( >0 : ENTERING  <0 : EXITING )
     FLUX BOUNDARY    2:    0.1000000E-01 M3/S  ( >0 : ENTERING  <0 : EXITING )
     RELATIVE ERROR IN VOLUME AT T =        6.832     S :    0.4411780E-16

================================================================================
 ITERATION     9600    TIME:   6.9020 S
--------------------------------------------------------------------------------
                    DIFFUSION-PROPAGATION STEP
 TIME-STEP:    6.7678556370022350E-004
--------------------------------------------------------------------------------
                       BALANCE OF WATER VOLUME
     VOLUME IN THE DOMAIN :    3.022076     M3
     FLUX BOUNDARY    1:    0.4710044     M3/S  ( >0 : ENTERING  <0 : EXITING )
     FLUX BOUNDARY    2:    0.1000000E-01 M3/S  ( >0 : ENTERING  <0 : EXITING )
     RELATIVE ERROR IN VOLUME AT T =        6.903     S :   -0.2359570E-15

================================================================================
 ITERATION     9700    TIME:   6.9726 S
--------------------------------------------------------------------------------
                    DIFFUSION-PROPAGATION STEP
 TIME-STEP:    8.8793869819115540E-004
--------------------------------------------------------------------------------
                       BALANCE OF WATER VOLUME
     VOLUME IN THE DOMAIN :    3.050898     M3
     FLUX BOUNDARY    1:    0.2868522     M3/S  ( >0 : ENTERING  <0 : EXITING )
     FLUX BOUNDARY    2:    0.1000000E-01 M3/S  ( >0 : ENTERING  <0 : EXITING )
     RELATIVE ERROR IN VOLUME AT T =        6.973     S :    0.5082167E-15

================================================================================
 ITERATION     9800    TIME:   7.0457 S
--------------------------------------------------------------------------------
                    DIFFUSION-PROPAGATION STEP
 TIME-STEP:    6.7546445381640023E-004
--------------------------------------------------------------------------------
                       BALANCE OF WATER VOLUME
     VOLUME IN THE DOMAIN :    3.080591     M3
     FLUX BOUNDARY    1:    0.4737740     M3/S  ( >0 : ENTERING  <0 : EXITING )
     FLUX BOUNDARY    2:    0.1000000E-01 M3/S  ( >0 : ENTERING  <0 : EXITING )
     RELATIVE ERROR IN VOLUME AT T =        7.046     S :    0.4796674E-15

================================================================================
 ITERATION     9900    TIME:   7.1171 S
--------------------------------------------------------------------------------
                    DIFFUSION-PROPAGATION STEP
 TIME-STEP:    6.7615508409753504E-004
--------------------------------------------------------------------------------
                       BALANCE OF WATER VOLUME
     VOLUME IN THE DOMAIN :    3.109469     M3
     FLUX BOUNDARY    1:    0.3797446     M3/S  ( >0 : ENTERING  <0 : EXITING )
     FLUX BOUNDARY    2:    0.1000000E-01 M3/S  ( >0 : ENTERING  <0 : EXITING )
     RELATIVE ERROR IN VOLUME AT T =        7.118     S :    0.2335965E-15

================================================================================
 ITERATION    10000    TIME:   7.1882 S
--------------------------------------------------------------------------------
                    DIFFUSION-PROPAGATION STEP
 TIME-STEP:    8.5029568694914995E-004
--------------------------------------------------------------------------------
                       BALANCE OF WATER VOLUME
     VOLUME IN THE DOMAIN :    3.138416     M3
     FLUX BOUNDARY    1:    0.2865845     M3/S  ( >0 : ENTERING  <0 : EXITING )
     FLUX BOUNDARY    2:    0.1000000E-01 M3/S  ( >0 : ENTERING  <0 : EXITING )
     RELATIVE ERROR IN VOLUME AT T =        7.189     S :    0.1140127E-14

================================================================================
 ITERATION    10100    TIME:   7.2608 S
--------------------------------------------------------------------------------
                    DIFFUSION-PROPAGATION STEP
 TIME-STEP:    6.7778235762653454E-004
--------------------------------------------------------------------------------
                       BALANCE OF WATER VOLUME
     VOLUME IN THE DOMAIN :    3.167820     M3
     FLUX BOUNDARY    1:    0.3791432     M3/S  ( >0 : ENTERING  <0 : EXITING )
     FLUX BOUNDARY    2:    0.1000000E-01 M3/S  ( >0 : ENTERING  <0 : EXITING )
     RELATIVE ERROR IN VOLUME AT T =        7.261     S :    0.8010821E-15

================================================================================
 ITERATION    10200    TIME:   7.3310 S
--------------------------------------------------------------------------------
                    DIFFUSION-PROPAGATION STEP
 TIME-STEP:    6.7686564204527742E-004
--------------------------------------------------------------------------------
                       BALANCE OF WATER VOLUME
     VOLUME IN THE DOMAIN :    3.196365     M3
     FLUX BOUNDARY    1:    0.4724553     M3/S  ( >0 : ENTERING  <0 : EXITING )
     FLUX BOUNDARY    2:    0.1000000E-01 M3/S  ( >0 : ENTERING  <0 : EXITING )
     RELATIVE ERROR IN VOLUME AT T =        7.332     S :   -0.6813479E-15

================================================================================
 ITERATION    10300    TIME:   7.4017 S
--------------------------------------------------------------------------------
                    DIFFUSION-PROPAGATION STEP
 TIME-STEP:    8.8813018982734741E-004
--------------------------------------------------------------------------------
                       BALANCE OF WATER VOLUME
     VOLUME IN THE DOMAIN :    3.225157     M3
     FLUX BOUNDARY    1:    0.2866418     M3/S  ( >0 : ENTERING  <0 : EXITING )
     FLUX BOUNDARY    2:    0.1000000E-01 M3/S  ( >0 : ENTERING  <0 : EXITING )
     RELATIVE ERROR IN VOLUME AT T =        7.403     S :    0.4946242E-15

================================================================================
 ITERATION    10400    TIME:   7.4719 S
--------------------------------------------------------------------------------
                    DIFFUSION-PROPAGATION STEP
 TIME-STEP:    6.7789090342738553E-004
--------------------------------------------------------------------------------
                       BALANCE OF WATER VOLUME
     VOLUME IN THE DOMAIN :    3.253641     M3
     FLUX BOUNDARY    1:    0.4259629     M3/S  ( >0 : ENTERING  <0 : EXITING )
     FLUX BOUNDARY    2:    0.1000000E-01 M3/S  ( >0 : ENTERING  <0 : EXITING )
     RELATIVE ERROR IN VOLUME AT T =        7.473     S :   -0.4702504E-15

================================================================================
 ITERATION    10500    TIME:   7.5422 S
--------------------------------------------------------------------------------
                    DIFFUSION-PROPAGATION STEP
 TIME-STEP:    8.5324927898409347E-004
--------------------------------------------------------------------------------
                       BALANCE OF WATER VOLUME
     VOLUME IN THE DOMAIN :    3.282183     M3
     FLUX BOUNDARY    1:    0.2864604     M3/S  ( >0 : ENTERING  <0 : EXITING )
     FLUX BOUNDARY    2:    0.1000000E-01 M3/S  ( >0 : ENTERING  <0 : EXITING )
     RELATIVE ERROR IN VOLUME AT T =        7.543     S :   -0.7042958E-15

================================================================================
 ITERATION    10600    TIME:   7.6125 S
--------------------------------------------------------------------------------
                    DIFFUSION-PROPAGATION STEP
[...]
--------------------------------------------------------------------------------
                       BALANCE OF WATER VOLUME
     VOLUME IN THE DOMAIN :    2.813144     M3
     FLUX BOUNDARY    1:   -0.1578216E-01 M3/S  ( >0 : ENTERING  <0 : EXITING )
     FLUX BOUNDARY    2:    0.1000000E-01 M3/S  ( >0 : ENTERING  <0 : EXITING )
     RELATIVE ERROR IN VOLUME AT T =        33.67     S :    0.3913622E-15

================================================================================
 ITERATION    35100    TIME:  33.7986 S
--------------------------------------------------------------------------------
                    DIFFUSION-PROPAGATION STEP
 TIME-STEP:    1.2920697879047465E-003
--------------------------------------------------------------------------------
                       BALANCE OF WATER VOLUME
     VOLUME IN THE DOMAIN :    2.813426     M3
     FLUX BOUNDARY    1:   -0.6407020E-04 M3/S  ( >0 : ENTERING  <0 : EXITING )
     FLUX BOUNDARY    2:    0.1000000E-01 M3/S  ( >0 : ENTERING  <0 : EXITING )
     RELATIVE ERROR IN VOLUME AT T =        33.80     S :    0.3567260E-15

================================================================================
 ITERATION    35200    TIME:  33.9270 S
--------------------------------------------------------------------------------
                    DIFFUSION-PROPAGATION STEP
 TIME-STEP:    1.2756990053782262E-003
--------------------------------------------------------------------------------
                       BALANCE OF WATER VOLUME
     VOLUME IN THE DOMAIN :    2.815692     M3
     FLUX BOUNDARY    1:    0.1512320E-01 M3/S  ( >0 : ENTERING  <0 : EXITING )
     FLUX BOUNDARY    2:    0.1000000E-01 M3/S  ( >0 : ENTERING  <0 : EXITING )
     RELATIVE ERROR IN VOLUME AT T =        33.93     S :    0.4202561E-15

================================================================================
 ITERATION    35300    TIME:  34.0531 S
--------------------------------------------------------------------------------
                    DIFFUSION-PROPAGATION STEP
 TIME-STEP:    1.2602108120021891E-003
--------------------------------------------------------------------------------
                       BALANCE OF WATER VOLUME
     VOLUME IN THE DOMAIN :    2.819779     M3
     FLUX BOUNDARY    1:    0.2947932E-01 M3/S  ( >0 : ENTERING  <0 : EXITING )
     FLUX BOUNDARY    2:    0.1000000E-01 M3/S  ( >0 : ENTERING  <0 : EXITING )
     RELATIVE ERROR IN VOLUME AT T =        34.05     S :   -0.5459164E-15

================================================================================
 ITERATION    35400    TIME:  34.1784 S
--------------------------------------------------------------------------------
                    DIFFUSION-PROPAGATION STEP
 TIME-STEP:    1.2457787269546080E-003
--------------------------------------------------------------------------------
                       BALANCE OF WATER VOLUME
     VOLUME IN THE DOMAIN :    2.825598     M3
     FLUX BOUNDARY    1:    0.4318056E-01 M3/S  ( >0 : ENTERING  <0 : EXITING )
     FLUX BOUNDARY    2:    0.1000000E-01 M3/S  ( >0 : ENTERING  <0 : EXITING )
     RELATIVE ERROR IN VOLUME AT T =        34.18     S :   -0.2268333E-15

================================================================================
 ITERATION    35500    TIME:  34.3023 S
--------------------------------------------------------------------------------
                    DIFFUSION-PROPAGATION STEP
 TIME-STEP:    1.2324125296372228E-003
--------------------------------------------------------------------------------
                       BALANCE OF WATER VOLUME
     VOLUME IN THE DOMAIN :    2.833005     M3
     FLUX BOUNDARY    1:    0.5615746E-01 M3/S  ( >0 : ENTERING  <0 : EXITING )
     FLUX BOUNDARY    2:    0.1000000E-01 M3/S  ( >0 : ENTERING  <0 : EXITING )
     RELATIVE ERROR IN VOLUME AT T =        34.30     S :    0.1258441E-14

================================================================================
 ITERATION    35600    TIME:  34.4249 S
--------------------------------------------------------------------------------
                    DIFFUSION-PROPAGATION STEP
 TIME-STEP:    1.2200375805350083E-003
--------------------------------------------------------------------------------
                       BALANCE OF WATER VOLUME
     VOLUME IN THE DOMAIN :    2.841882     M3
     FLUX BOUNDARY    1:    0.6842576E-01 M3/S  ( >0 : ENTERING  <0 : EXITING )
     FLUX BOUNDARY    2:    0.1000000E-01 M3/S  ( >0 : ENTERING  <0 : EXITING )
     RELATIVE ERROR IN VOLUME AT T =        34.43     S :   -0.1303724E-14

================================================================================
 ITERATION    35700    TIME:  34.5463 S
--------------------------------------------------------------------------------
                    DIFFUSION-PROPAGATION STEP
 TIME-STEP:    1.2085864368683139E-003
--------------------------------------------------------------------------------
                       BALANCE OF WATER VOLUME
     VOLUME IN THE DOMAIN :    2.852120     M3
     FLUX BOUNDARY    1:    0.8000145E-01 M3/S  ( >0 : ENTERING  <0 : EXITING )
     FLUX BOUNDARY    2:    0.1000000E-01 M3/S  ( >0 : ENTERING  <0 : EXITING )
     RELATIVE ERROR IN VOLUME AT T =        34.55     S :   -0.2273232E-16

================================================================================
 ITERATION    35800    TIME:  34.6666 S
--------------------------------------------------------------------------------
                    DIFFUSION-PROPAGATION STEP
 TIME-STEP:    1.1979981609230800E-003
--------------------------------------------------------------------------------
                       BALANCE OF WATER VOLUME
     VOLUME IN THE DOMAIN :    2.863616     M3
     FLUX BOUNDARY    1:    0.9090053E-01 M3/S  ( >0 : ENTERING  <0 : EXITING )
     FLUX BOUNDARY    2:    0.1000000E-01 M3/S  ( >0 : ENTERING  <0 : EXITING )
     RELATIVE ERROR IN VOLUME AT T =        34.67     S :   -0.8764463E-15

================================================================================
 ITERATION    35900    TIME:  34.7860 S
--------------------------------------------------------------------------------
                    DIFFUSION-PROPAGATION STEP
 TIME-STEP:    1.1882174527342978E-003
--------------------------------------------------------------------------------
                       BALANCE OF WATER VOLUME
     VOLUME IN THE DOMAIN :    2.876276     M3
     FLUX BOUNDARY    1:    0.1011391     M3/S  ( >0 : ENTERING  <0 : EXITING )
     FLUX BOUNDARY    2:    0.1000000E-01 M3/S  ( >0 : ENTERING  <0 : EXITING )
     RELATIVE ERROR IN VOLUME AT T =        34.79     S :   -0.3895742E-15

================================================================================
 ITERATION    36000    TIME:  34.9043 S
--------------------------------------------------------------------------------
                    DIFFUSION-PROPAGATION STEP
 TIME-STEP:    1.1791938159850983E-003
--------------------------------------------------------------------------------
                       BALANCE OF WATER VOLUME
     VOLUME IN THE DOMAIN :    2.890010     M3
     FLUX BOUNDARY    1:    0.1107336     M3/S  ( >0 : ENTERING  <0 : EXITING )
     FLUX BOUNDARY    2:    0.1000000E-01 M3/S  ( >0 : ENTERING  <0 : EXITING )
     RELATIVE ERROR IN VOLUME AT T =        34.91     S :   -0.1727308E-15

================================================================================
 ITERATION    36100    TIME:  35.0218 S
--------------------------------------------------------------------------------
                    DIFFUSION-PROPAGATION STEP
 TIME-STEP:    1.1708808853612789E-003
--------------------------------------------------------------------------------
                       BALANCE OF WATER VOLUME
     VOLUME IN THE DOMAIN :    2.904733     M3
     FLUX BOUNDARY    1:    0.1197007     M3/S  ( >0 : ENTERING  <0 : EXITING )
     FLUX BOUNDARY    2:    0.1000000E-01 M3/S  ( >0 : ENTERING  <0 : EXITING )
     RELATIVE ERROR IN VOLUME AT T =        35.02     S :    0.1310027E-15

================================================================================
 ITERATION    36200    TIME:  35.1385 S
--------------------------------------------------------------------------------
                    DIFFUSION-PROPAGATION STEP
 TIME-STEP:    1.1632360060659824E-003
--------------------------------------------------------------------------------
                       BALANCE OF WATER VOLUME
     VOLUME IN THE DOMAIN :    2.920366     M3
     FLUX BOUNDARY    1:    0.1280576     M3/S  ( >0 : ENTERING  <0 : EXITING )
     FLUX BOUNDARY    2:    0.1000000E-01 M3/S  ( >0 : ENTERING  <0 : EXITING )
     RELATIVE ERROR IN VOLUME AT T =        35.14     S :    0.3232708E-16

================================================================================
 ITERATION    36300    TIME:  35.2545 S
--------------------------------------------------------------------------------
                    DIFFUSION-PROPAGATION STEP
 TIME-STEP:    1.1562201260568652E-003
--------------------------------------------------------------------------------
                       BALANCE OF WATER VOLUME
     VOLUME IN THE DOMAIN :    2.936836     M3
     FLUX BOUNDARY    1:    0.1358213     M3/S  ( >0 : ENTERING  <0 : EXITING )
     FLUX BOUNDARY    2:    0.1000000E-01 M3/S  ( >0 : ENTERING  <0 : EXITING )
     RELATIVE ERROR IN VOLUME AT T =        35.26     S :   -0.5565477E-15

================================================================================
 ITERATION    36400    TIME:  35.3698 S
--------------------------------------------------------------------------------
                    DIFFUSION-PROPAGATION STEP
 TIME-STEP:    1.1497980024802756E-003
--------------------------------------------------------------------------------
                       BALANCE OF WATER VOLUME
     VOLUME IN THE DOMAIN :    2.954071     M3
     FLUX BOUNDARY    1:    0.1430079     M3/S  ( >0 : ENTERING  <0 : EXITING )
     FLUX BOUNDARY    2:    0.1000000E-01 M3/S  ( >0 : ENTERING  <0 : EXITING )
     RELATIVE ERROR IN VOLUME AT T =        35.37     S :   -0.6567633E-15

================================================================================
 ITERATION    36500    TIME:  35.4845 S
--------------------------------------------------------------------------------
                    DIFFUSION-PROPAGATION STEP
 TIME-STEP:    1.1439386657649715E-003
--------------------------------------------------------------------------------
                       BALANCE OF WATER VOLUME
     VOLUME IN THE DOMAIN :    2.972007     M3
     FLUX BOUNDARY    1:    0.1496320     M3/S  ( >0 : ENTERING  <0 : EXITING )
     FLUX BOUNDARY    2:    0.1000000E-01 M3/S  ( >0 : ENTERING  <0 : EXITING )
     RELATIVE ERROR IN VOLUME AT T =        35.49     S :   -0.8249786E-15

================================================================================
 ITERATION    36600    TIME:  35.5986 S
--------------------------------------------------------------------------------
                    DIFFUSION-PROPAGATION STEP
 TIME-STEP:    1.1386160246958153E-003
--------------------------------------------------------------------------------
                       BALANCE OF WATER VOLUME
     VOLUME IN THE DOMAIN :    2.990579     M3
     FLUX BOUNDARY    1:    0.1557050     M3/S  ( >0 : ENTERING  <0 : EXITING )
     FLUX BOUNDARY    2:    0.1000000E-01 M3/S  ( >0 : ENTERING  <0 : EXITING )
     RELATIVE ERROR IN VOLUME AT T =        35.60     S :    0.9646262E-16

================================================================================
 ITERATION    36700    TIME:  35.7122 S
--------------------------------------------------------------------------------
                    DIFFUSION-PROPAGATION STEP
 TIME-STEP:    1.1338094493347983E-003
--------------------------------------------------------------------------------
                       BALANCE OF WATER VOLUME
     VOLUME IN THE DOMAIN :    3.009728     M3
     FLUX BOUNDARY    1:    0.1612346     M3/S  ( >0 : ENTERING  <0 : EXITING )
     FLUX BOUNDARY    2:    0.1000000E-01 M3/S  ( >0 : ENTERING  <0 : EXITING )
     RELATIVE ERROR IN VOLUME AT T =        35.71     S :    0.2673016E-15

================================================================================
 ITERATION    36800    TIME:  35.8254 S
--------------------------------------------------------------------------------
                    DIFFUSION-PROPAGATION STEP
 TIME-STEP:    1.1295041424548742E-003
--------------------------------------------------------------------------------
                       BALANCE OF WATER VOLUME
     VOLUME IN THE DOMAIN :    3.029395     M3
     FLUX BOUNDARY    1:    0.1662235     M3/S  ( >0 : ENTERING  <0 : EXITING )
     FLUX BOUNDARY    2:    0.1000000E-01 M3/S  ( >0 : ENTERING  <0 : EXITING )
     RELATIVE ERROR IN VOLUME AT T =        35.83     S :    0.1678702E-15

================================================================================
 ITERATION    36900    TIME:  35.9382 S
--------------------------------------------------------------------------------
                    DIFFUSION-PROPAGATION STEP
 TIME-STEP:    1.1256911026926691E-003
--------------------------------------------------------------------------------
                       BALANCE OF WATER VOLUME
     VOLUME IN THE DOMAIN :    3.049523     M3
     FLUX BOUNDARY    1:    0.1706694     M3/S  ( >0 : ENTERING  <0 : EXITING )
     FLUX BOUNDARY    2:    0.1000000E-01 M3/S  ( >0 : ENTERING  <0 : EXITING )
     RELATIVE ERROR IN VOLUME AT T =        35.94     S :    0.3741705E-15

================================================================================
 ITERATION    37000    TIME:  36.0505 S
--------------------------------------------------------------------------------
                    DIFFUSION-PROPAGATION STEP
 TIME-STEP:    1.1223669552368682E-003
--------------------------------------------------------------------------------
                       BALANCE OF WATER VOLUME
     VOLUME IN THE DOMAIN :    3.070052     M3
     FLUX BOUNDARY    1:    0.1745650     M3/S  ( >0 : ENTERING  <0 : EXITING )
     FLUX BOUNDARY    2:    0.1000000E-01 M3/S  ( >0 : ENTERING  <0 : EXITING )
     RELATIVE ERROR IN VOLUME AT T =        36.05     S :   -0.5968749E-15

================================================================================
 ITERATION    37100    TIME:  36.1626 S
--------------------------------------------------------------------------------
                    DIFFUSION-PROPAGATION STEP
 TIME-STEP:    1.1195305968967251E-003
--------------------------------------------------------------------------------
                       BALANCE OF WATER VOLUME
     VOLUME IN THE DOMAIN :    3.090934     M3
     FLUX BOUNDARY    1:    0.1779017     M3/S  ( >0 : ENTERING  <0 : EXITING )
     FLUX BOUNDARY    2:    0.1000000E-01 M3/S  ( >0 : ENTERING  <0 : EXITING )
     RELATIVE ERROR IN VOLUME AT T =        36.16     S :   -0.4049359E-15

================================================================================
 ITERATION    37200    TIME:  36.2745 S
--------------------------------------------------------------------------------
                    DIFFUSION-PROPAGATION STEP
 TIME-STEP:    1.1171838916842732E-003
--------------------------------------------------------------------------------
                       BALANCE OF WATER VOLUME
     VOLUME IN THE DOMAIN :    3.112109     M3
     FLUX BOUNDARY    1:    0.1806688     M3/S  ( >0 : ENTERING  <0 : EXITING )
     FLUX BOUNDARY    2:    0.1000000E-01 M3/S  ( >0 : ENTERING  <0 : EXITING )
     RELATIVE ERROR IN VOLUME AT T =        36.28     S :    0.1567718E-16

================================================================================
 ITERATION    37300    TIME:  36.3861 S
--------------------------------------------------------------------------------
                    DIFFUSION-PROPAGATION STEP
 TIME-STEP:    1.1153262819882668E-003
--------------------------------------------------------------------------------
                       BALANCE OF WATER VOLUME
     VOLUME IN THE DOMAIN :    3.133520     M3
     FLUX BOUNDARY    1:    0.1828603     M3/S  ( >0 : ENTERING  <0 : EXITING )
     FLUX BOUNDARY    2:    0.1000000E-01 M3/S  ( >0 : ENTERING  <0 : EXITING )
     RELATIVE ERROR IN VOLUME AT T =        36.39     S :    0.4297336E-16

================================================================================
 ITERATION    37400    TIME:  36.4975 S
--------------------------------------------------------------------------------
                    DIFFUSION-PROPAGATION STEP
 TIME-STEP:    1.1139508562284760E-003
--------------------------------------------------------------------------------
                       BALANCE OF WATER VOLUME
     VOLUME IN THE DOMAIN :    3.155113     M3
     FLUX BOUNDARY    1:    0.1844791     M3/S  ( >0 : ENTERING  <0 : EXITING )
     FLUX BOUNDARY    2:    0.1000000E-01 M3/S  ( >0 : ENTERING  <0 : EXITING )
     RELATIVE ERROR IN VOLUME AT T =        36.50     S :    0.1423931E-15

================================================================================
 ITERATION    37500    TIME:  36.6089 S
--------------------------------------------------------------------------------
                    DIFFUSION-PROPAGATION STEP
 TIME-STEP:    1.1130325007809663E-003
--------------------------------------------------------------------------------
                       BALANCE OF WATER VOLUME
     VOLUME IN THE DOMAIN :    3.176832     M3
     FLUX BOUNDARY    1:    0.1855425     M3/S  ( >0 : ENTERING  <0 : EXITING )
     FLUX BOUNDARY    2:    0.1000000E-01 M3/S  ( >0 : ENTERING  <0 : EXITING )
     RELATIVE ERROR IN VOLUME AT T =        36.61     S :    0.5929897E-15

================================================================================
 ITERATION    37600    TIME:  36.7202 S
--------------------------------------------------------------------------------
                    DIFFUSION-PROPAGATION STEP
 TIME-STEP:    1.1125486762295033E-003
--------------------------------------------------------------------------------
                       BALANCE OF WATER VOLUME
     VOLUME IN THE DOMAIN :    3.198626     M3
     FLUX BOUNDARY    1:    0.1860872     M3/S  ( >0 : ENTERING  <0 : EXITING )
     FLUX BOUNDARY    2:    0.1000000E-01 M3/S  ( >0 : ENTERING  <0 : EXITING )
     RELATIVE ERROR IN VOLUME AT T =        36.72     S :   -0.6200911E-15

================================================================================
 ITERATION    37700    TIME:  36.8314 S
--------------------------------------------------------------------------------
                    DIFFUSION-PROPAGATION STEP
 TIME-STEP:    1.1124510952915730E-003
--------------------------------------------------------------------------------
                       BALANCE OF WATER VOLUME
     VOLUME IN THE DOMAIN :    3.220449     M3
     FLUX BOUNDARY    1:    0.1861717     M3/S  ( >0 : ENTERING  <0 : EXITING )
     FLUX BOUNDARY    2:    0.1000000E-01 M3/S  ( >0 : ENTERING  <0 : EXITING )
     RELATIVE ERROR IN VOLUME AT T =        36.83     S :   -0.5961439E-16

================================================================================
 ITERATION    37800    TIME:  36.9427 S
--------------------------------------------------------------------------------
                    DIFFUSION-PROPAGATION STEP
 TIME-STEP:    1.1126750505013234E-003
--------------------------------------------------------------------------------
                       BALANCE OF WATER VOLUME
     VOLUME IN THE DOMAIN :    3.242260     M3
     FLUX BOUNDARY    1:    0.1858752     M3/S  ( >0 : ENTERING  <0 : EXITING )
     FLUX BOUNDARY    2:    0.1000000E-01 M3/S  ( >0 : ENTERING  <0 : EXITING )
     RELATIVE ERROR IN VOLUME AT T =        36.94     S :   -0.3983505E-16
