/---------------------------------------------------------------------
/ TELEMAC2D Version v6p1 Nov 14, 2013
/ FRASER RIVER HPG
/---------------------------------------------------------------------

/---------------------------------------------------------------------
/ BOUNDARY CONDITIONS
/---------------------------------------------------------------------

STAGE-DISCHARGE CURVES =0;0;1


/---------------------------------------------------------------------
/ EQUATIONS
/---------------------------------------------------------------------

BOTTOM SMOOTHINGS      =1

FRICTION COEFFICIENT   =0.06

PROPAGATION            =YES

LAW OF BOTTOM FRICTION =4

VELOCITY DIFFUSIVITY   =0.2

ADVECTION OF TRACERS   =false

TURBULENCE MODEL       =3


/---------------------------------------------------------------------
/ EQUATIONS, BOUNDARY CONDITIONS
/---------------------------------------------------------------------

PRESCRIBED FLOWRATES         =10;0.0

PRESCRIBED ELEVATIONS        =0.0;0.2

VELOCITY PROFILES            =5;5

OPTION FOR LIQUID BOUNDARIES =1;1


/---------------------------------------------------------------------
/ EQUATIONS, INITIAL CONDITIONS
/---------------------------------------------------------------------

INITIAL ELEVATION  =0.2

INITIAL CONDITIONS ='CONSTANT ELEVATION'


/---------------------------------------------------------------------
/ INPUT-OUTPUT, FILES
/---------------------------------------------------------------------

GEOMETRY FILE               ='geometry/geometry_0.slf'

STEERING FILE               ='steering_0.cas'

BOUNDARY CONDITIONS FILE    ='boundary/boundary.cli'

RESULTS FILE                ='results/results_0.slf'


/---------------------------------------------------------------------
/ INPUT-OUTPUT, GRAPHICS AND LISTING
/---------------------------------------------------------------------

LISTING PRINTOUT PERIOD         =10

INFORMATION ABOUT SOLVER        =YES

GRAPHIC PRINTOUT PERIOD         =120

VARIABLES FOR GRAPHIC PRINTOUTS =U,V,S,B,H,F

MASS-BALANCE                    =YES


/---------------------------------------------------------------------
/ INPUT-OUTPUT, INFORMATION
/---------------------------------------------------------------------

VALIDATION            =NO

COMPUTATION CONTINUED =NO



/---------------------------------------------------------------------
/ NUMERICAL PARAMETERS
/---------------------------------------------------------------------

CONTINUITY CORRECTION    =true

NUMBER OF TIME STEPS     =30000

DISCRETIZATIONS IN SPACE =11;11

SUPG OPTION              =1;1

PRECONDITIONING          =2

TIME STEP                =0.05

TIDAL FLATS              =true

TYPE OF ADVECTION        =1;5


/---------------------------------------------------------------------
/ NUMERICAL PARAMETERS, SOLVER
/---------------------------------------------------------------------

SOLVER                                  =2

SOLVER ACCURACY                         =1.E-3

MAXIMUM NUMBER OF ITERATIONS FOR SOLVER =1000


/---------------------------------------------------------------------
/ NUMERICAL PARAMETERS, VELOCITY-CELERITY-HIGHT
/---------------------------------------------------------------------

IMPLICITATION FOR DEPTH    =1

IMPLICITATION FOR VELOCITY =1
